
 OpenBabel06232215053D

373396  0  0  1  0  0  0  0  0999 V2000
    2.4667    5.6921    0.2761 C   0  0  0  0  0  0  0  0  0  0  0  0
    1.6010    5.2113    1.2653 C   0  0  0  0  0  0  0  0  0  0  0  0
    0.3160    5.7678    1.3963 C   0  0  0  0  0  0  0  0  0  0  0  0
   -0.1337    6.7564    0.5082 C   0  0  0  0  0  0  0  0  0  0  0  0
    0.7306    7.2247   -0.4914 C   0  0  0  0  0  0  0  0  0  0  0  0
    2.0167    6.7037   -0.5629 C   0  0  0  0  0  0  0  0  0  0  0  0
    3.7478    5.0549   -0.1241 C   0  0  0  0  0  0  0  0  0  0  0  0
    0.3916    8.1302   -1.6223 C   0  0  0  0  0  0  0  0  0  0  0  0
    0.8725    9.4467   -1.5772 C   0  0  0  0  0  0  0  0  0  0  0  0
    1.2460   10.0875   -2.7538 C   0  0  0  0  0  0  0  0  0  0  0  0
    1.1612    9.4269   -3.9782 C   0  0  0  0  0  0  0  0  0  0  0  0
    0.5618    8.1687   -4.0408 C   0  0  0  0  0  0  0  0  0  0  0  0
    0.1799    7.5190   -2.8698 C   0  0  0  0  0  0  0  0  0  0  0  0
    3.7041    3.8158   -0.7790 C   0  0  0  0  0  0  0  0  0  0  0  0
    4.7638    3.4185   -1.5905 C   0  0  0  0  0  0  0  0  0  0  0  0
    5.8748    4.2449   -1.7711 C   0  0  0  0  0  0  0  0  0  0  0  0
    5.9562    5.4354   -1.0349 C   0  0  0  0  0  0  0  0  0  0  0  0
    4.9004    5.8465   -0.2299 C   0  0  0  0  0  0  0  0  0  0  0  0
    1.8619   10.0200   -5.1927 C   0  0  2  0  0  0  0  0  0  0  0  0
    1.0096   10.1786   -6.3723 N   0  0  0  0  0  0  0  0  0  0  0  0
    6.9037    3.8870   -2.8097 C   0  0  0  0  0  0  0  0  0  0  0  0
    6.8480    2.8799   -3.4881 O   0  0  0  0  0  0  0  0  0  0  0  0
   -3.2733    7.6720  -12.3322 C   0  0  0  0  0  0  0  0  0  0  0  0
   -4.1734    8.2419  -13.2418 C   0  0  0  0  0  0  0  0  0  0  0  0
   -4.3836    9.6341  -13.2167 C   0  0  0  0  0  0  0  0  0  0  0  0
   -3.7245   10.4489  -12.2842 C   0  0  0  0  0  0  0  0  0  0  0  0
   -2.8042    9.8782  -11.3938 C   0  0  0  0  0  0  0  0  0  0  0  0
   -2.5989    8.5059  -11.4507 C   0  0  0  0  0  0  0  0  0  0  0  0
   -2.9882    6.2276  -12.1344 C   0  0  0  0  0  0  0  0  0  0  0  0
   -2.1163   10.5638  -10.2665 C   0  0  0  0  0  0  0  0  0  0  0  0
   -0.7259   10.4136  -10.1621 C   0  0  0  0  0  0  0  0  0  0  0  0
   -0.1020   10.5245   -8.9272 C   0  0  0  0  0  0  0  0  0  0  0  0
   -0.8469   10.7956   -7.7741 C   0  0  0  0  0  0  0  0  0  0  0  0
   -2.2139   11.0565   -7.8983 C   0  0  0  0  0  0  0  0  0  0  0  0
   -2.8540   10.9248   -9.1294 C   0  0  0  0  0  0  0  0  0  0  0  0
   -1.8255    5.7026  -12.7169 C   0  0  0  0  0  0  0  0  0  0  0  0
   -1.1200    4.6948  -12.0679 C   0  0  0  0  0  0  0  0  0  0  0  0
   -1.5522    4.2132  -10.8328 C   0  0  0  0  0  0  0  0  0  0  0  0
   -2.7792    4.6345  -10.3205 C   0  0  0  0  0  0  0  0  0  0  0  0
   -3.4947    5.6402  -10.9619 C   0  0  0  0  0  0  0  0  0  0  0  0
   -0.2237   10.7323   -6.4091 C   0  0  0  0  0  0  0  0  0  0  0  0
   -0.6028    3.3638   -9.9935 C   0  0  2  0  0  0  0  0  0  0  0  0
   -1.1610    2.0710   -9.5992 N   0  0  0  0  0  0  0  0  0  0  0  0
   -0.8224   11.0426   -5.3979 O   0  0  0  0  0  0  0  0  0  0  0  0
    8.5021    6.9664   -9.1306 C   0  0  0  0  0  0  0  0  0  0  0  0
    7.9948    6.9604  -10.4373 C   0  0  0  0  0  0  0  0  0  0  0  0
    8.1909    8.0868  -11.2594 C   0  0  0  0  0  0  0  0  0  0  0  0
    8.8316    9.2313  -10.7713 C   0  0  0  0  0  0  0  0  0  0  0  0
    9.3544    9.2280   -9.4724 C   0  0  0  0  0  0  0  0  0  0  0  0
    9.2073    8.0834   -8.6982 C   0  0  0  0  0  0  0  0  0  0  0  0
    8.2012    5.9777   -8.0580 C   0  0  0  0  0  0  0  0  0  0  0  0
    9.6429   10.4379   -8.6700 C   0  0  0  0  0  0  0  0  0  0  0  0
    8.5119   11.0081   -8.0674 C   0  0  0  0  0  0  0  0  0  0  0  0
    8.6179   11.6083   -6.8244 C   0  0  0  0  0  0  0  0  0  0  0  0
    9.8473   11.6890   -6.1777 C   0  0  0  0  0  0  0  0  0  0  0  0
   11.0011   11.2456   -6.8398 C   0  0  0  0  0  0  0  0  0  0  0  0
   10.9005   10.5960   -8.0674 C   0  0  0  0  0  0  0  0  0  0  0  0
    9.1346    4.9704   -7.7786 C   0  0  0  0  0  0  0  0  0  0  0  0
    9.2518    4.4746   -6.4817 C   0  0  0  0  0  0  0  0  0  0  0  0
    8.4662    4.9900   -5.4491 C   0  0  0  0  0  0  0  0  0  0  0  0
    7.4491    5.8952   -5.7527 C   0  0  0  0  0  0  0  0  0  0  0  0
    7.3148    6.3887   -7.0469 C   0  0  0  0  0  0  0  0  0  0  0  0
    9.8738   12.2197   -4.7786 C   0  0  0  0  0  0  0  0  0  0  0  0
    8.9252    4.7817   -4.0086 C   0  0  2  0  0  0  0  0  0  0  0  0
    7.8577    4.8189   -3.0079 N   0  0  0  0  0  0  0  0  0  0  0  0
    8.8659   12.5475   -4.1808 O   0  0  0  0  0  0  0  0  0  0  0  0
   13.6554   16.2821    2.4497 C   0  0  0  0  0  0  0  0  0  0  0  0
   13.8141   15.8590    3.7813 C   0  0  0  0  0  0  0  0  0  0  0  0
   13.5738   14.5180    4.1365 C   0  0  0  0  0  0  0  0  0  0  0  0
   13.1678   13.5828    3.1822 C   0  0  0  0  0  0  0  0  0  0  0  0
   13.0036   13.9920    1.8571 C   0  0  0  0  0  0  0  0  0  0  0  0
   13.2429   15.3255    1.5229 C   0  0  0  0  0  0  0  0  0  0  0  0
   13.8792   17.7006    1.9968 C   0  0  0  0  0  0  0  0  0  0  0  0
   12.5674   13.1299    0.7330 C   0  0  0  0  0  0  0  0  0  0  0  0
   11.1996   13.1001    0.4216 C   0  0  0  0  0  0  0  0  0  0  0  0
   10.8048   13.0511   -0.9114 C   0  0  0  0  0  0  0  0  0  0  0  0
   11.7647   13.0295   -1.9238 C   0  0  0  0  0  0  0  0  0  0  0  0
   13.1069   12.8385   -1.5993 C   0  0  0  0  0  0  0  0  0  0  0  0
   13.5136   12.9066   -0.2760 C   0  0  0  0  0  0  0  0  0  0  0  0
   14.2828   17.9714    0.6749 C   0  0  0  0  0  0  0  0  0  0  0  0
   14.4111   19.2809    0.2241 C   0  0  0  0  0  0  0  0  0  0  0  0
   14.1636   20.3619    1.0712 C   0  0  0  0  0  0  0  0  0  0  0  0
   13.7564   20.0978    2.3829 C   0  0  0  0  0  0  0  0  0  0  0  0
   13.6182   18.7888    2.8464 C   0  0  0  0  0  0  0  0  0  0  0  0
   11.3727   13.4752   -3.3204 C   0  0  2  0  0  0  0  0  0  0  0  0
   11.0950   12.3786   -4.2360 N   0  0  0  0  0  0  0  0  0  0  0  0
   14.3030   21.7606    0.5251 C   0  0  0  0  0  0  0  0  0  0  0  0
   14.4879   21.9658   -0.6573 O   0  0  0  0  0  0  0  0  0  0  0  0
  -21.3295    5.2783   -5.2457 C   0  0  0  0  0  0  0  0  0  0  0  0
  -22.1553    6.4066   -5.3075 C   0  0  0  0  0  0  0  0  0  0  0  0
  -23.1336    6.4968   -6.3126 C   0  0  0  0  0  0  0  0  0  0  0  0
  -23.3202    5.4521   -7.2299 C   0  0  0  0  0  0  0  0  0  0  0  0
  -22.5118    4.3074   -7.1492 C   0  0  0  0  0  0  0  0  0  0  0  0
  -21.5205    4.2600   -6.1723 C   0  0  0  0  0  0  0  0  0  0  0  0
  -20.3570    5.0021   -4.1563 C   0  0  0  0  0  0  0  0  0  0  0  0
  -22.6284    3.0756   -7.9787 C   0  0  0  0  0  0  0  0  0  0  0  0
  -21.8661    2.9714   -9.1512 C   0  0  0  0  0  0  0  0  0  0  0  0
  -21.4441    1.7199   -9.5935 C   0  0  0  0  0  0  0  0  0  0  0  0
  -21.7595    0.5676   -8.8728 C   0  0  0  0  0  0  0  0  0  0  0  0
  -22.6218    0.6585   -7.7809 C   0  0  0  0  0  0  0  0  0  0  0  0
  -23.0530    1.9026   -7.3313 C   0  0  0  0  0  0  0  0  0  0  0  0
  -20.8401    4.5977   -2.9044 C   0  0  0  0  0  0  0  0  0  0  0  0
  -19.9938    3.9431   -2.0140 C   0  0  0  0  0  0  0  0  0  0  0  0
  -18.6702    3.6735   -2.3534 C   0  0  0  0  0  0  0  0  0  0  0  0
  -18.1661    4.1580   -3.5699 C   0  0  0  0  0  0  0  0  0  0  0  0
  -19.0056    4.8036   -4.4713 C   0  0  0  0  0  0  0  0  0  0  0  0
  -20.9742   -0.7099   -9.1468 C   0  0  2  0  0  0  0  0  0  0  0  0
  -21.7623   -1.9430   -9.0716 N   0  0  0  0  0  0  0  0  0  0  0  0
  -17.8473    2.7995   -1.4464 C   0  0  0  0  0  0  0  0  0  0  0  0
  -18.2826    2.3295   -0.4128 O   0  0  0  0  0  0  0  0  0  0  0  0
  -27.1415   -8.0481   -7.4701 C   0  0  0  0  0  0  0  0  0  0  0  0
  -26.6060   -9.3323   -7.3092 C   0  0  0  0  0  0  0  0  0  0  0  0
  -25.3986   -9.6597   -7.9476 C   0  0  0  0  0  0  0  0  0  0  0  0
  -24.6907   -8.6961   -8.6759 C   0  0  0  0  0  0  0  0  0  0  0  0
  -25.2191   -7.4060   -8.8361 C   0  0  0  0  0  0  0  0  0  0  0  0
  -26.4527   -7.1234   -8.2561 C   0  0  0  0  0  0  0  0  0  0  0  0
  -28.1984   -7.4544   -6.6095 C   0  0  0  0  0  0  0  0  0  0  0  0
  -24.4322   -6.2358   -9.3260 C   0  0  0  0  0  0  0  0  0  0  0  0
  -24.9749   -5.3545  -10.2754 C   0  0  0  0  0  0  0  0  0  0  0  0
  -24.3908   -4.1077  -10.4910 C   0  0  0  0  0  0  0  0  0  0  0  0
  -23.2901   -3.6933   -9.7379 C   0  0  0  0  0  0  0  0  0  0  0  0
  -22.7350   -4.5866   -8.8120 C   0  0  0  0  0  0  0  0  0  0  0  0
  -23.2908   -5.8465   -8.6119 C   0  0  0  0  0  0  0  0  0  0  0  0
  -29.3639   -6.9604   -7.2154 C   0  0  0  0  0  0  0  0  0  0  0  0
  -29.9554   -5.7976   -6.7285 C   0  0  0  0  0  0  0  0  0  0  0  0
  -29.3632   -5.1039   -5.6712 C   0  0  0  0  0  0  0  0  0  0  0  0
  -28.3233   -5.6965   -4.9586 C   0  0  0  0  0  0  0  0  0  0  0  0
  -27.7444   -6.8733   -5.4160 C   0  0  0  0  0  0  0  0  0  0  0  0
  -22.7512   -2.2994   -9.9186 C   0  0  0  0  0  0  0  0  0  0  0  0
  -29.6103   -3.6159   -5.4765 C   0  0  2  0  0  0  0  0  0  0  0  0
  -30.8181   -3.2892   -4.7052 N   0  0  0  0  0  0  0  0  0  0  0  0
  -23.1765   -1.5274  -10.7557 O   0  0  0  0  0  0  0  0  0  0  0  0
  -14.5068   -3.3619   -3.1512 C   0  0  0  0  0  0  0  0  0  0  0  0
  -14.6172   -4.6180   -3.7630 C   0  0  0  0  0  0  0  0  0  0  0  0
  -13.5236   -5.1248   -4.4909 C   0  0  0  0  0  0  0  0  0  0  0  0
  -12.3594   -4.3622   -4.6715 C   0  0  0  0  0  0  0  0  0  0  0  0
  -12.2486   -3.1084   -4.0525 C   0  0  0  0  0  0  0  0  0  0  0  0
  -13.3138   -2.6612   -3.2863 C   0  0  0  0  0  0  0  0  0  0  0  0
  -15.5956   -2.5397   -2.5573 C   0  0  0  0  0  0  0  0  0  0  0  0
  -11.2469   -2.0553   -4.3726 C   0  0  0  0  0  0  0  0  0  0  0  0
  -11.2699   -1.4958   -5.6564 C   0  0  0  0  0  0  0  0  0  0  0  0
  -10.7636   -0.2181   -5.8675 C   0  0  0  0  0  0  0  0  0  0  0  0
  -10.2121    0.5227   -4.8133 C   0  0  0  0  0  0  0  0  0  0  0  0
  -10.1394   -0.0617   -3.5484 C   0  0  0  0  0  0  0  0  0  0  0  0
  -10.6569   -1.3327   -3.3224 C   0  0  0  0  0  0  0  0  0  0  0  0
  -15.4698   -2.2365   -1.1930 C   0  0  0  0  0  0  0  0  0  0  0  0
  -15.6676   -0.9317   -0.7492 C   0  0  0  0  0  0  0  0  0  0  0  0
  -15.9863    0.0797   -1.6560 C   0  0  0  0  0  0  0  0  0  0  0  0
  -16.3039   -0.2590   -2.9691 C   0  0  0  0  0  0  0  0  0  0  0  0
  -16.1262   -1.5655   -3.4214 C   0  0  0  0  0  0  0  0  0  0  0  0
   -9.6159    1.8887   -5.0242 C   0  0  0  0  0  0  0  0  0  0  0  0
  -15.7138    1.5284   -1.2566 C   0  0  2  0  0  0  0  0  0  0  0  0
  -16.6135    2.4895   -1.8926 N   0  0  0  0  0  0  0  0  0  0  0  0
   -9.0152    2.4768   -4.1458 O   0  0  0  0  0  0  0  0  0  0  0  0
   -3.9769   -3.4623   -8.0515 C   0  0  0  0  0  0  0  0  0  0  0  0
   -4.2979   -4.7210   -8.5734 C   0  0  0  0  0  0  0  0  0  0  0  0
   -5.5563   -5.2849   -8.3132 C   0  0  0  0  0  0  0  0  0  0  0  0
   -6.5320   -4.5524   -7.6240 C   0  0  0  0  0  0  0  0  0  0  0  0
   -6.2041   -3.2978   -7.0839 C   0  0  0  0  0  0  0  0  0  0  0  0
   -4.9063   -2.8206   -7.2428 C   0  0  0  0  0  0  0  0  0  0  0  0
   -2.9929   -2.5466   -8.6907 C   0  0  0  0  0  0  0  0  0  0  0  0
   -7.1698   -2.2018   -6.7951 C   0  0  0  0  0  0  0  0  0  0  0  0
   -6.9246   -1.3877   -5.6779 C   0  0  0  0  0  0  0  0  0  0  0  0
   -7.2227   -0.0306   -5.7271 C   0  0  0  0  0  0  0  0  0  0  0  0
   -7.7953    0.5381   -6.8660 C   0  0  0  0  0  0  0  0  0  0  0  0
   -8.1547   -0.2959   -7.9278 C   0  0  0  0  0  0  0  0  0  0  0  0
   -7.8375   -1.6517   -7.9016 C   0  0  0  0  0  0  0  0  0  0  0  0
   -3.1456   -2.3024  -10.0637 C   0  0  0  0  0  0  0  0  0  0  0  0
   -2.6510   -1.1315  -10.6251 C   0  0  0  0  0  0  0  0  0  0  0  0
   -2.0131   -0.1762   -9.8339 C   0  0  0  0  0  0  0  0  0  0  0  0
   -1.7986   -0.4511   -8.4776 C   0  0  0  0  0  0  0  0  0  0  0  0
   -2.2828   -1.6233   -7.9068 C   0  0  0  0  0  0  0  0  0  0  0  0
   -8.1003    2.0367   -6.8728 C   0  0  2  0  0  0  0  0  0  0  0  0
   -9.4400    2.2353   -6.3161 N   0  0  0  0  0  0  0  0  0  0  0  0
   -1.6252    1.1341  -10.4531 C   0  0  0  0  0  0  0  0  0  0  0  0
   -1.7555    1.3608  -11.6406 O   0  0  0  0  0  0  0  0  0  0  0  0
  -31.9398   -2.7727   -5.2386 C   0  0  0  0  0  0  0  0  0  0  0  0
  -32.3734   -3.0717   -6.3342 O   0  0  0  0  0  0  0  0  0  0  0  0
  -32.1639   -1.6185   -4.5710 O   0  0  0  0  0  0  0  0  0  0  0  0
  -32.8456   -0.4704   -5.1554 C   0  0  0  0  0  0  0  0  0  0  0  0
  -34.3277   -0.8066   -5.4416 C   0  0  0  0  0  0  0  0  0  0  0  0
  -32.7582    0.6412   -4.0866 C   0  0  0  0  0  0  0  0  0  0  0  0
  -32.1045    0.0060   -6.4319 C   0  0  0  0  0  0  0  0  0  0  0  0
   14.2278   22.8107    1.3729 O   0  0  0  0  0  0  0  0  0  0  0  0
   15.2110   22.9230    2.4305 C   0  0  0  0  0  0  0  0  0  0  0  0
    1.9280    4.3975    1.9054 H   0  0  0  0  0  0  0  0  0  0  0  0
   -0.5713    5.3185    2.3591 O   0  0  0  0  0  0  0  0  0  0  0  0
   -1.1543    7.1253    0.5828 H   0  0  0  0  0  0  0  0  0  0  0  0
    2.6628    7.0341   -1.3746 H   0  0  0  0  0  0  0  0  0  0  0  0
    1.0985    9.9224   -0.6258 H   0  0  0  0  0  0  0  0  0  0  0  0
    1.7090   11.0695   -2.6999 H   0  0  0  0  0  0  0  0  0  0  0  0
    0.4950    7.6395   -4.9880 H   0  0  0  0  0  0  0  0  0  0  0  0
   -0.1305    6.4782   -2.9282 H   0  0  0  0  0  0  0  0  0  0  0  0
    2.7987    3.2147   -0.7610 H   0  0  0  0  0  0  0  0  0  0  0  0
    4.6750    2.4943   -2.1565 H   0  0  0  0  0  0  0  0  0  0  0  0
    6.8076    6.1031   -1.1306 H   0  0  0  0  0  0  0  0  0  0  0  0
    4.9427    6.8304    0.2337 H   0  0  0  0  0  0  0  0  0  0  0  0
    2.2096   11.0242   -4.9365 H   0  0  0  0  0  0  0  0  0  0  0  0
    3.1185    9.1969   -5.5537 C   0  0  0  0  0  0  0  0  0  0  0  0
    1.4116    9.8755   -7.2452 H   0  0  0  0  0  0  0  0  0  0  0  0
   -4.7107    7.6040  -13.9370 H   0  0  0  0  0  0  0  0  0  0  0  0
   -5.2696   10.2549  -14.0792 O   0  0  0  0  0  0  0  0  0  0  0  0
   -3.9336   11.5157  -12.2565 H   0  0  0  0  0  0  0  0  0  0  0  0
   -1.9206    8.0504  -10.7307 H   0  0  0  0  0  0  0  0  0  0  0  0
   -0.1364   10.0954  -11.0194 H   0  0  0  0  0  0  0  0  0  0  0  0
    0.9675   10.3396   -8.8782 H   0  0  0  0  0  0  0  0  0  0  0  0
   -2.8126   11.2528   -7.0120 H   0  0  0  0  0  0  0  0  0  0  0  0
   -3.9393   10.9808   -9.1685 H   0  0  0  0  0  0  0  0  0  0  0  0
   -1.3817    6.1752  -13.5894 H   0  0  0  0  0  0  0  0  0  0  0  0
   -0.1682    4.3651  -12.4771 H   0  0  0  0  0  0  0  0  0  0  0  0
   -3.1278    4.2663   -9.3593 H   0  0  0  0  0  0  0  0  0  0  0  0
   -4.3576    6.0715  -10.4589 H   0  0  0  0  0  0  0  0  0  0  0  0
    0.2811    3.1416  -10.5917 H   0  0  0  0  0  0  0  0  0  0  0  0
   -0.1222    4.1473   -8.7562 C   0  0  0  0  0  0  0  0  0  0  0  0
   -1.1134    1.8424   -8.6190 H   0  0  0  0  0  0  0  0  0  0  0  0
    7.4162    6.1095  -10.7831 H   0  0  0  0  0  0  0  0  0  0  0  0
    7.6727    8.1624  -12.5383 O   0  0  0  0  0  0  0  0  0  0  0  0
    8.8625   10.1336  -11.3785 H   0  0  0  0  0  0  0  0  0  0  0  0
    9.5291    8.1173   -7.6580 H   0  0  0  0  0  0  0  0  0  0  0  0
    7.5219   10.8369   -8.4805 H   0  0  0  0  0  0  0  0  0  0  0  0
    7.7122   11.9490   -6.3278 H   0  0  0  0  0  0  0  0  0  0  0  0
   11.9777   11.3026   -6.3676 H   0  0  0  0  0  0  0  0  0  0  0  0
   11.7815   10.1134   -8.4836 H   0  0  0  0  0  0  0  0  0  0  0  0
    9.8719    4.6787   -8.5225 H   0  0  0  0  0  0  0  0  0  0  0  0
   10.0573    3.7822   -6.2525 H   0  0  0  0  0  0  0  0  0  0  0  0
    6.8395    6.3259   -4.9614 H   0  0  0  0  0  0  0  0  0  0  0  0
    6.6247    7.2121   -7.2195 H   0  0  0  0  0  0  0  0  0  0  0  0
    9.9179    5.9139   -3.6719 C   0  0  0  0  0  0  0  0  0  0  0  0
  -26.3948  -12.2232   -7.5237 H   0  0  0  0  0  0  0  0  0  0  0  0
    7.8302    5.6440   -2.4309 H   0  0  0  0  0  0  0  0  0  0  0  0
   14.1335   16.5721    4.5339 H   0  0  0  0  0  0  0  0  0  0  0  0
   13.7265   14.0624    5.4326 O   0  0  0  0  0  0  0  0  0  0  0  0
   12.9860   12.5504    3.4744 H   0  0  0  0  0  0  0  0  0  0  0  0
   13.0670   15.6242    0.4909 H   0  0  0  0  0  0  0  0  0  0  0  0
   10.4508   13.3043    1.1845 H   0  0  0  0  0  0  0  0  0  0  0  0
    9.7528   13.1778   -1.1583 H   0  0  0  0  0  0  0  0  0  0  0  0
   13.8661   12.8010   -2.3745 H   0  0  0  0  0  0  0  0  0  0  0  0
   14.5776   12.9792   -0.0638 H   0  0  0  0  0  0  0  0  0  0  0  0
   14.5041   17.1694   -0.0241 H   0  0  0  0  0  0  0  0  0  0  0  0
   14.7168   19.4523   -0.8057 H   0  0  0  0  0  0  0  0  0  0  0  0
   13.4903   20.9106    3.0498 H   0  0  0  0  0  0  0  0  0  0  0  0
   13.2663   18.6296    3.8621 H   0  0  0  0  0  0  0  0  0  0  0  0
    9.4412    3.8223   -3.9164 H   0  0  0  0  0  0  0  0  0  0  0  0
  -24.0645    8.3955   -4.4860 H   0  0  0  0  0  0  0  0  0  0  0  0
   11.8805   12.0958   -4.7996 H   0  0  0  0  0  0  0  0  0  0  0  0
  -22.0329    7.1945   -4.5705 H   0  0  0  0  0  0  0  0  0  0  0  0
  -23.9706    7.5953   -6.4095 O   0  0  0  0  0  0  0  0  0  0  0  0
  -24.1071    5.5257   -7.9768 H   0  0  0  0  0  0  0  0  0  0  0  0
  -20.9049    3.3651   -6.0979 H   0  0  0  0  0  0  0  0  0  0  0  0
  -21.4771    3.8616   -9.6401 H   0  0  0  0  0  0  0  0  0  0  0  0
  -20.7626    1.6584  -10.4386 H   0  0  0  0  0  0  0  0  0  0  0  0
  -22.8655   -0.2279   -7.1989 H   0  0  0  0  0  0  0  0  0  0  0  0
  -23.5971    1.9599   -6.3913 H   0  0  0  0  0  0  0  0  0  0  0  0
  -21.8955    4.6933   -2.6610 H   0  0  0  0  0  0  0  0  0  0  0  0
  -20.4060    3.5693   -1.0789 H   0  0  0  0  0  0  0  0  0  0  0  0
  -17.1359    3.9820   -3.8647 H   0  0  0  0  0  0  0  0  0  0  0  0
  -18.6180    5.0792   -5.4493 H   0  0  0  0  0  0  0  0  0  0  0  0
  -19.8072   -0.7948   -8.1416 C   0  0  0  0  0  0  0  0  0  0  0  0
  -20.5497   -0.6635  -10.1524 H   0  0  0  0  0  0  0  0  0  0  0  0
  -21.4745   -2.6107   -8.3743 H   0  0  0  0  0  0  0  0  0  0  0  0
  -27.1040  -10.0418   -6.6556 H   0  0  0  0  0  0  0  0  0  0  0  0
  -24.8087  -10.9031   -7.8045 O   0  0  0  0  0  0  0  0  0  0  0  0
  -23.7105   -8.9441   -9.0764 H   0  0  0  0  0  0  0  0  0  0  0  0
  -26.8191   -6.0987   -8.2914 H   0  0  0  0  0  0  0  0  0  0  0  0
  -25.8840   -5.6117  -10.8141 H   0  0  0  0  0  0  0  0  0  0  0  0
  -24.8414   -3.4310  -11.2134 H   0  0  0  0  0  0  0  0  0  0  0  0
  -21.8793   -4.3066   -8.2042 H   0  0  0  0  0  0  0  0  0  0  0  0
  -22.8795   -6.4863   -7.8344 H   0  0  0  0  0  0  0  0  0  0  0  0
  -29.7123   -7.3687   -8.1612 H   0  0  0  0  0  0  0  0  0  0  0  0
  -30.7794   -5.3540   -7.2818 H   0  0  0  0  0  0  0  0  0  0  0  0
  -27.8539   -5.1659   -4.1334 H   0  0  0  0  0  0  0  0  0  0  0  0
  -26.8159   -7.2055   -4.9568 H   0  0  0  0  0  0  0  0  0  0  0  0
  -29.4384   -2.8494   -6.8155 C   0  0  0  0  0  0  0  0  0  0  0  0
  -28.7955   -3.2381   -4.8532 H   0  0  0  0  0  0  0  0  0  0  0  0
  -30.6006   -2.9316   -3.7883 H   0  0  0  0  0  0  0  0  0  0  0  0
  -15.5515   -5.1675   -3.6998 H   0  0  0  0  0  0  0  0  0  0  0  0
  -13.5732   -6.3523   -5.1281 O   0  0  0  0  0  0  0  0  0  0  0  0
  -11.5671   -4.7338   -5.3175 H   0  0  0  0  0  0  0  0  0  0  0  0
  -13.2673   -1.6515   -2.8812 H   0  0  0  0  0  0  0  0  0  0  0  0
  -11.7739   -2.0048   -6.4747 H   0  0  0  0  0  0  0  0  0  0  0  0
  -10.8364    0.1996   -6.8675 H   0  0  0  0  0  0  0  0  0  0  0  0
   -9.7001    0.4851   -2.7174 H   0  0  0  0  0  0  0  0  0  0  0  0
  -10.6705   -1.7210   -2.3066 H   0  0  0  0  0  0  0  0  0  0  0  0
  -15.0111   -2.9484   -0.5106 H   0  0  0  0  0  0  0  0  0  0  0  0
  -15.4155   -0.6774    0.2758 H   0  0  0  0  0  0  0  0  0  0  0  0
  -16.5437    0.5140   -3.6976 H   0  0  0  0  0  0  0  0  0  0  0  0
  -16.1784   -1.7503   -4.4919 H   0  0  0  0  0  0  0  0  0  0  0  0
  -14.2575    1.8721   -1.6421 C   0  0  0  0  0  0  0  0  0  0  0  0
  -15.8103    1.6356   -0.1754 H   0  0  0  0  0  0  0  0  0  0  0  0
  -16.3134    2.8744   -2.7687 H   0  0  0  0  0  0  0  0  0  0  0  0
   -3.5999   -5.2050   -9.2492 H   0  0  0  0  0  0  0  0  0  0  0  0
   -5.9305   -6.4959   -8.8703 O   0  0  0  0  0  0  0  0  0  0  0  0
   -7.5524   -4.9261   -7.5841 H   0  0  0  0  0  0  0  0  0  0  0  0
   -4.7049   -1.7909   -6.9549 H   0  0  0  0  0  0  0  0  0  0  0  0
   -6.3714   -1.7719   -4.8242 H   0  0  0  0  0  0  0  0  0  0  0  0
   -6.9720    0.5963   -4.8745 H   0  0  0  0  0  0  0  0  0  0  0  0
   -8.6310    0.1116   -8.8149 H   0  0  0  0  0  0  0  0  0  0  0  0
   -7.9875   -2.2390   -8.8049 H   0  0  0  0  0  0  0  0  0  0  0  0
   -3.7609   -2.9542  -10.6796 H   0  0  0  0  0  0  0  0  0  0  0  0
   -2.8511   -0.9270  -11.6742 H   0  0  0  0  0  0  0  0  0  0  0  0
   -1.3021    0.2662   -7.8299 H   0  0  0  0  0  0  0  0  0  0  0  0
   -2.1967   -1.7585   -6.8307 H   0  0  0  0  0  0  0  0  0  0  0  0
   -7.3910    2.5328   -6.2030 H   0  0  0  0  0  0  0  0  0  0  0  0
   -7.9340    2.7114   -8.2496 C   0  0  0  0  0  0  0  0  0  0  0  0
  -10.1374    1.8654   -6.9421 H   0  0  0  0  0  0  0  0  0  0  0  0
  -34.4249   -1.5187   -6.2631 H   0  0  0  0  0  0  0  0  0  0  0  0
  -34.7993   -1.2397   -4.5565 H   0  0  0  0  0  0  0  0  0  0  0  0
  -34.8789    0.0955   -5.7168 H   0  0  0  0  0  0  0  0  0  0  0  0
  -33.2671    0.3375   -3.1689 H   0  0  0  0  0  0  0  0  0  0  0  0
  -31.7147    0.8535   -3.8392 H   0  0  0  0  0  0  0  0  0  0  0  0
  -33.2169    1.5657   -4.4451 H   0  0  0  0  0  0  0  0  0  0  0  0
  -32.1949   -0.7144   -7.2468 H   0  0  0  0  0  0  0  0  0  0  0  0
  -32.5153    0.9542   -6.7859 H   0  0  0  0  0  0  0  0  0  0  0  0
  -31.0415    0.1537   -6.2263 H   0  0  0  0  0  0  0  0  0  0  0  0
   16.1176   22.3752    2.1563 H   0  0  0  0  0  0  0  0  0  0  0  0
   15.4562   23.9800    2.5612 H   0  0  0  0  0  0  0  0  0  0  0  0
   14.8065   22.5353    3.3671 H   0  0  0  0  0  0  0  0  0  0  0  0
  -30.1793   -3.1436   -7.5614 H   0  0  0  0  0  0  0  0  0  0  0  0
  -29.5193   -1.7725   -6.6584 H   0  0  0  0  0  0  0  0  0  0  0  0
  -28.4523   -3.0532   -7.2397 H   0  0  0  0  0  0  0  0  0  0  0  0
  -20.1811   -0.8523   -7.1158 H   0  0  0  0  0  0  0  0  0  0  0  0
  -19.1946   -1.6791   -8.3315 H   0  0  0  0  0  0  0  0  0  0  0  0
  -19.1678    0.0877   -8.2200 H   0  0  0  0  0  0  0  0  0  0  0  0
   -8.6980    2.3770   -8.9542 H   0  0  0  0  0  0  0  0  0  0  0  0
   -8.0177    3.7959   -8.1497 H   0  0  0  0  0  0  0  0  0  0  0  0
   -6.9500    2.4847   -8.6673 H   0  0  0  0  0  0  0  0  0  0  0  0
  -14.1094    1.7880   -2.7223 H   0  0  0  0  0  0  0  0  0  0  0  0
  -14.0105    2.8927   -1.3413 H   0  0  0  0  0  0  0  0  0  0  0  0
  -13.5577    1.1924   -1.1502 H   0  0  0  0  0  0  0  0  0  0  0  0
   -0.9566    4.3832   -8.0916 H   0  0  0  0  0  0  0  0  0  0  0  0
    0.6089    3.5637   -8.1918 H   0  0  0  0  0  0  0  0  0  0  0  0
    0.3492    5.0853   -9.0588 H   0  0  0  0  0  0  0  0  0  0  0  0
    2.8463    8.1817   -5.8571 H   0  0  0  0  0  0  0  0  0  0  0  0
    3.6658    9.6611   -6.3767 H   0  0  0  0  0  0  0  0  0  0  0  0
    3.7904    9.1238   -4.6953 H   0  0  0  0  0  0  0  0  0  0  0  0
  -22.9021    9.1898   -5.5944 H   0  0  0  0  0  0  0  0  0  0  0  0
  -25.5498  -11.7039   -6.0299 H   0  0  0  0  0  0  0  0  0  0  0  0
  -24.7749  -12.8687   -7.1384 H   0  0  0  0  0  0  0  0  0  0  0  0
    9.4217    6.8870   -3.7380 H   0  0  0  0  0  0  0  0  0  0  0  0
   10.7580    5.9161   -4.3696 H   0  0  0  0  0  0  0  0  0  0  0  0
   10.3095    5.8008   -2.6589 H   0  0  0  0  0  0  0  0  0  0  0  0
  -25.4236  -11.9915   -7.0775 C   0  0  0  0  0  0  0  0  0  0  0  0
  -23.8911    8.7297   -5.5130 C   0  0  0  0  0  0  0  0  0  0  0  0
  -14.6974   -7.2552   -5.0223 C   0  0  0  0  0  0  0  0  0  0  0  0
   -5.0293   -7.3108   -9.6589 C   0  0  0  0  0  0  0  0  0  0  0  0
   -6.0240    9.5417  -15.0853 C   0  0  0  0  0  0  0  0  0  0  0  0
   -0.2249    4.3140    3.3419 C   0  0  0  0  0  0  0  0  0  0  0  0
    6.9125    7.0958  -13.1462 C   0  0  0  0  0  0  0  0  0  0  0  0
   14.1608   14.9045    6.5225 C   0  0  0  0  0  0  0  0  0  0  0  0
   14.2102   14.3027    7.4335 H   0  0  0  0  0  0  0  0  0  0  0  0
   15.1513   15.3090    6.2965 H   0  0  0  0  0  0  0  0  0  0  0  0
   13.4419   15.7170    6.6583 H   0  0  0  0  0  0  0  0  0  0  0  0
    6.6305    7.3966  -14.1583 H   0  0  0  0  0  0  0  0  0  0  0  0
    7.5278    6.1931  -13.1897 H   0  0  0  0  0  0  0  0  0  0  0  0
    6.0115    6.9111  -12.5547 H   0  0  0  0  0  0  0  0  0  0  0  0
   -1.0826    4.1470    3.9978 H   0  0  0  0  0  0  0  0  0  0  0  0
    0.0313    3.3802    2.8332 H   0  0  0  0  0  0  0  0  0  0  0  0
    0.6256    4.6630    3.9345 H   0  0  0  0  0  0  0  0  0  0  0  0
   -5.5480   -8.2214   -9.9680 H   0  0  0  0  0  0  0  0  0  0  0  0
   -4.7153   -6.7539  -10.5466 H   0  0  0  0  0  0  0  0  0  0  0  0
   -4.1557   -7.5745   -9.0557 H   0  0  0  0  0  0  0  0  0  0  0  0
   -6.6400   10.2559  -15.6375 H   0  0  0  0  0  0  0  0  0  0  0  0
   -5.3340    9.0456  -15.7736 H   0  0  0  0  0  0  0  0  0  0  0  0
   -6.6679    8.8030  -14.6000 H   0  0  0  0  0  0  0  0  0  0  0  0
  -14.4723   -8.1672   -5.5810 H   0  0  0  0  0  0  0  0  0  0  0  0
  -14.8669   -7.5037   -3.9710 H   0  0  0  0  0  0  0  0  0  0  0  0
  -15.5859   -6.7786   -5.4452 H   0  0  0  0  0  0  0  0  0  0  0  0
  -24.6559    9.4585   -5.7917 H   0  0  0  0  0  0  0  0  0  0  0  0
   10.4568   14.0660   -3.2187 H   0  0  0  0  0  0  0  0  0  0  0  0
   12.3884   14.4382   -3.9674 C   0  0  0  0  0  0  0  0  0  0  0  0
   13.3148   13.9157   -4.2166 H   0  0  0  0  0  0  0  0  0  0  0  0
   11.9831   14.8553   -4.8912 H   0  0  0  0  0  0  0  0  0  0  0  0
   12.6225   15.2609   -3.2884 H   0  0  0  0  0  0  0  0  0  0  0  0
  1  2  2  0  0  0  0
  1  6  1  0  0  0  0
  1  7  1  0  0  0  0
  2  3  1  0  0  0  0
  2186  1  0  0  0  0
  3  4  2  0  0  0  0
  3187  1  0  0  0  0
  4  5  1  0  0  0  0
  4188  1  0  0  0  0
  5  6  2  0  0  0  0
  5  8  1  0  0  0  0
  6189  1  0  0  0  0
  7 14  2  0  0  0  0
  7 18  1  0  0  0  0
  8  9  2  0  0  0  0
  8 13  1  0  0  0  0
  9 10  1  0  0  0  0
  9190  1  0  0  0  0
 10 11  2  0  0  0  0
 10191  1  0  0  0  0
 11 12  1  0  0  0  0
 11 19  1  0  0  0  0
 12 13  2  0  0  0  0
 12192  1  0  0  0  0
 13193  1  0  0  0  0
 14 15  1  0  0  0  0
 14194  1  0  0  0  0
 15 16  2  0  0  0  0
 15195  1  0  0  0  0
 16 17  1  0  0  0  0
 16 21  1  0  0  0  0
 17 18  2  0  0  0  0
 17196  1  0  0  0  0
 18197  1  0  0  0  0
 19 20  1  0  0  0  0
 19198  1  1  0  0  0
 19199  1  0  0  0  0
 20 41  1  0  0  0  0
 20200  1  0  0  0  0
 21 22  2  0  0  0  0
 21 65  1  0  0  0  0
 23 24  2  0  0  0  0
 23 28  1  0  0  0  0
 23 29  1  0  0  0  0
 24 25  1  0  0  0  0
 24201  1  0  0  0  0
 25 26  2  0  0  0  0
 25202  1  0  0  0  0
 26 27  1  0  0  0  0
 26203  1  0  0  0  0
 27 28  2  0  0  0  0
 27 30  1  0  0  0  0
 28204  1  0  0  0  0
 29 36  2  0  0  0  0
 29 40  1  0  0  0  0
 30 31  2  0  0  0  0
 30 35  1  0  0  0  0
 31 32  1  0  0  0  0
 31205  1  0  0  0  0
 32 33  2  0  0  0  0
 32206  1  0  0  0  0
 33 34  1  0  0  0  0
 33 41  1  0  0  0  0
 34 35  2  0  0  0  0
 34207  1  0  0  0  0
 35208  1  0  0  0  0
 36 37  1  0  0  0  0
 36209  1  0  0  0  0
 37 38  2  0  0  0  0
 37210  1  0  0  0  0
 38 39  1  0  0  0  0
 38 42  1  0  0  0  0
 39 40  2  0  0  0  0
 39211  1  0  0  0  0
 40212  1  0  0  0  0
 41 44  2  0  0  0  0
 42 43  1  0  0  0  0
 42213  1  6  0  0  0
 42214  1  0  0  0  0
 43175  1  0  0  0  0
 43215  1  0  0  0  0
 45 46  2  0  0  0  0
 45 50  1  0  0  0  0
 45 51  1  0  0  0  0
 46 47  1  0  0  0  0
 46216  1  0  0  0  0
 47 48  2  0  0  0  0
 47217  1  0  0  0  0
 48 49  1  0  0  0  0
 48218  1  0  0  0  0
 49 50  2  0  0  0  0
 49 52  1  0  0  0  0
 50219  1  0  0  0  0
 51 58  2  0  0  0  0
 51 62  1  0  0  0  0
 52 53  2  0  0  0  0
 52 57  1  0  0  0  0
 53 54  1  0  0  0  0
 53220  1  0  0  0  0
 54 55  2  0  0  0  0
 54221  1  0  0  0  0
 55 56  1  0  0  0  0
 55 63  1  0  0  0  0
 56 57  2  0  0  0  0
 56222  1  0  0  0  0
 57223  1  0  0  0  0
 58 59  1  0  0  0  0
 58224  1  0  0  0  0
 59 60  2  0  0  0  0
 59225  1  0  0  0  0
 60 61  1  0  0  0  0
 60 64  1  0  0  0  0
 61 62  2  0  0  0  0
 61226  1  0  0  0  0
 62227  1  0  0  0  0
 63 66  2  0  0  0  0
 63 86  1  0  0  0  0
 64 65  1  0  0  0  0
 64228  1  0  0  0  0
 64243  1  1  0  0  0
 65230  1  0  0  0  0
 67 68  2  0  0  0  0
 67 72  1  0  0  0  0
 67 73  1  0  0  0  0
 68 69  1  0  0  0  0
 68231  1  0  0  0  0
 69 70  2  0  0  0  0
 69232  1  0  0  0  0
 70 71  1  0  0  0  0
 70233  1  0  0  0  0
 71 72  2  0  0  0  0
 71 74  1  0  0  0  0
 72234  1  0  0  0  0
 73 80  2  0  0  0  0
 73 84  1  0  0  0  0
 74 75  2  0  0  0  0
 74 79  1  0  0  0  0
 75 76  1  0  0  0  0
 75235  1  0  0  0  0
 76 77  2  0  0  0  0
 76236  1  0  0  0  0
 77 78  1  0  0  0  0
 77 85  1  0  0  0  0
 78 79  2  0  0  0  0
 78237  1  0  0  0  0
 79238  1  0  0  0  0
 80 81  1  0  0  0  0
 80239  1  0  0  0  0
 81 82  2  0  0  0  0
 81240  1  0  0  0  0
 82 83  1  0  0  0  0
 82 87  1  0  0  0  0
 83 84  2  0  0  0  0
 83241  1  0  0  0  0
 84242  1  0  0  0  0
 85 86  1  0  0  0  0
 85369  1  1  0  0  0
 85370  1  0  0  0  0
 86245  1  0  0  0  0
 87 88  2  0  0  0  0
 87184  1  0  0  0  0
 89 90  2  0  0  0  0
 89 94  1  0  0  0  0
 89 95  1  0  0  0  0
 90 91  1  0  0  0  0
 90246  1  0  0  0  0
 91 92  2  0  0  0  0
 91247  1  0  0  0  0
 92 93  1  0  0  0  0
 92248  1  0  0  0  0
 93 94  2  0  0  0  0
 93 96  1  0  0  0  0
 94249  1  0  0  0  0
 95102  2  0  0  0  0
 95106  1  0  0  0  0
 96 97  2  0  0  0  0
 96101  1  0  0  0  0
 97 98  1  0  0  0  0
 97250  1  0  0  0  0
 98 99  2  0  0  0  0
 98251  1  0  0  0  0
 99100  1  0  0  0  0
 99107  1  0  0  0  0
100101  2  0  0  0  0
100252  1  0  0  0  0
101253  1  0  0  0  0
102103  1  0  0  0  0
102254  1  0  0  0  0
103104  2  0  0  0  0
103255  1  0  0  0  0
104105  1  0  0  0  0
104109  1  0  0  0  0
105106  2  0  0  0  0
105256  1  0  0  0  0
106257  1  0  0  0  0
107108  1  0  0  0  0
107258  1  0  0  0  0
107259  1  6  0  0  0
108129  1  0  0  0  0
108260  1  0  0  0  0
109110  2  0  0  0  0
109153  1  0  0  0  0
111112  2  0  0  0  0
111116  1  0  0  0  0
111117  1  0  0  0  0
112113  1  0  0  0  0
112261  1  0  0  0  0
113114  2  0  0  0  0
113262  1  0  0  0  0
114115  1  0  0  0  0
114263  1  0  0  0  0
115116  2  0  0  0  0
115118  1  0  0  0  0
116264  1  0  0  0  0
117124  2  0  0  0  0
117128  1  0  0  0  0
118119  2  0  0  0  0
118123  1  0  0  0  0
119120  1  0  0  0  0
119265  1  0  0  0  0
120121  2  0  0  0  0
120266  1  0  0  0  0
121122  1  0  0  0  0
121129  1  0  0  0  0
122123  2  0  0  0  0
122267  1  0  0  0  0
123268  1  0  0  0  0
124125  1  0  0  0  0
124269  1  0  0  0  0
125126  2  0  0  0  0
125270  1  0  0  0  0
126127  1  0  0  0  0
126130  1  0  0  0  0
127128  2  0  0  0  0
127271  1  0  0  0  0
128272  1  0  0  0  0
129132  2  0  0  0  0
130131  1  0  0  0  0
130273  1  0  0  0  0
130274  1  1  0  0  0
131177  1  0  0  0  0
131275  1  0  0  0  0
133134  2  0  0  0  0
133138  1  0  0  0  0
133139  1  0  0  0  0
134135  1  0  0  0  0
134276  1  0  0  0  0
135136  2  0  0  0  0
135277  1  0  0  0  0
136137  1  0  0  0  0
136278  1  0  0  0  0
137138  2  0  0  0  0
137140  1  0  0  0  0
138279  1  0  0  0  0
139146  2  0  0  0  0
139150  1  0  0  0  0
140141  2  0  0  0  0
140145  1  0  0  0  0
141142  1  0  0  0  0
141280  1  0  0  0  0
142143  2  0  0  0  0
142281  1  0  0  0  0
143144  1  0  0  0  0
143151  1  0  0  0  0
144145  2  0  0  0  0
144282  1  0  0  0  0
145283  1  0  0  0  0
146147  1  0  0  0  0
146284  1  0  0  0  0
147148  2  0  0  0  0
147285  1  0  0  0  0
148149  1  0  0  0  0
148152  1  0  0  0  0
149150  2  0  0  0  0
149286  1  0  0  0  0
150287  1  0  0  0  0
151154  2  0  0  0  0
151174  1  0  0  0  0
152153  1  0  0  0  0
152288  1  0  0  0  0
152289  1  1  0  0  0
153290  1  0  0  0  0
155156  2  0  0  0  0
155160  1  0  0  0  0
155161  1  0  0  0  0
156157  1  0  0  0  0
156291  1  0  0  0  0
157158  2  0  0  0  0
157292  1  0  0  0  0
158159  1  0  0  0  0
158293  1  0  0  0  0
159160  2  0  0  0  0
159162  1  0  0  0  0
160294  1  0  0  0  0
161168  2  0  0  0  0
161172  1  0  0  0  0
162163  2  0  0  0  0
162167  1  0  0  0  0
163164  1  0  0  0  0
163295  1  0  0  0  0
164165  2  0  0  0  0
164296  1  0  0  0  0
165166  1  0  0  0  0
165173  1  0  0  0  0
166167  2  0  0  0  0
166297  1  0  0  0  0
167298  1  0  0  0  0
168169  1  0  0  0  0
168299  1  0  0  0  0
169170  2  0  0  0  0
169300  1  0  0  0  0
170171  1  0  0  0  0
170175  1  0  0  0  0
171172  2  0  0  0  0
171301  1  0  0  0  0
172302  1  0  0  0  0
173174  1  0  0  0  0
173303  1  1  0  0  0
173304  1  0  0  0  0
174305  1  0  0  0  0
175176  2  0  0  0  0
177178  2  0  0  0  0
177179  1  0  0  0  0
179180  1  0  0  0  0
180181  1  0  0  0  0
180182  1  0  0  0  0
180183  1  0  0  0  0
181306  1  0  0  0  0
181307  1  0  0  0  0
181308  1  0  0  0  0
182309  1  0  0  0  0
182310  1  0  0  0  0
182311  1  0  0  0  0
183312  1  0  0  0  0
183313  1  0  0  0  0
183314  1  0  0  0  0
184185  1  0  0  0  0
185315  1  0  0  0  0
185316  1  0  0  0  0
185317  1  0  0  0  0
187347  1  0  0  0  0
199333  1  0  0  0  0
199334  1  0  0  0  0
199335  1  0  0  0  0
202346  1  0  0  0  0
214330  1  0  0  0  0
214331  1  0  0  0  0
214332  1  0  0  0  0
217348  1  0  0  0  0
228340  1  0  0  0  0
228339  1  0  0  0  0
228341  1  0  0  0  0
232349  1  0  0  0  0
247343  1  0  0  0  0
258321  1  0  0  0  0
258322  1  0  0  0  0
258323  1  0  0  0  0
262342  1  0  0  0  0
273318  1  0  0  0  0
273319  1  0  0  0  0
273320  1  0  0  0  0
277344  1  0  0  0  0
288327  1  0  0  0  0
288328  1  0  0  0  0
288329  1  0  0  0  0
292345  1  0  0  0  0
304324  1  0  0  0  0
304325  1  0  0  0  0
304326  1  0  0  0  0
342338  1  0  0  0  0
342337  1  0  0  0  0
342229  1  0  0  0  0
343336  1  0  0  0  0
343244  1  0  0  0  0
343368  1  0  0  0  0
344365  1  0  0  0  0
344366  1  0  0  0  0
344367  1  0  0  0  0
345359  1  0  0  0  0
345360  1  0  0  0  0
345361  1  0  0  0  0
346362  1  0  0  0  0
346363  1  0  0  0  0
346364  1  0  0  0  0
347356  1  0  0  0  0
347357  1  0  0  0  0
347358  1  0  0  0  0
348353  1  0  0  0  0
348354  1  0  0  0  0
348355  1  0  0  0  0
349350  1  0  0  0  0
349351  1  0  0  0  0
349352  1  0  0  0  0
370371  1  0  0  0  0
370372  1  0  0  0  0
370373  1  0  0  0  0
M  END
$$$$
