pom_trimer_mbuild_bonds.pdb
 OpenBabel05312314483D

153161  0  0  1  0  0  0  0  0999 V2000
   -3.1500   -5.4180   -0.5200 C   0  0  0  0  0  0  0  0  0  0  0  0
   -1.9450   -4.6190   -0.4780 O   0  0  0  0  0  0  0  0  0  0  0  0
   -2.0080   -3.2660   -0.2450 C   0  0  0  0  0  0  0  0  0  0  0  0
   -3.1360   -2.5650   -0.1200 C   0  0  0  0  0  0  0  0  0  0  0  0
   -3.0950   -1.2540    0.1120 C   0  0  0  0  0  0  0  0  0  0  0  0
   -1.9320   -0.5860    0.2310 C   0  0  0  0  0  0  0  0  0  0  0  0
   -1.9560    0.6910    0.7090 C   0  0  0  0  0  0  0  0  0  0  0  0
   -0.9460    1.1570    1.4770 C   0  0  0  0  0  0  0  0  0  0  0  0
   -0.9020    2.4070    1.9190 C   0  0  0  0  0  0  0  0  0  0  0  0
   -1.8860    3.2430    1.6260 C   0  0  0  0  0  0  0  0  0  0  0  0
   -2.9450    2.8190    0.9280 C   0  0  0  0  0  0  0  0  0  0  0  0
   -3.9420    3.6610    0.6400 C   0  0  0  0  0  0  0  0  0  0  0  0
   -4.9830    3.5250    0.0060 O   0  0  0  0  0  0  0  0  0  0  0  0
   -2.9790    1.5450    0.4990 C   0  0  0  0  0  0  0  0  0  0  0  0
   -0.7790   -1.2820   -0.0180 C   0  0  0  0  0  0  0  0  0  0  0  0
    0.4240   -0.6980   -0.2270 C   0  0  0  0  0  0  0  0  0  0  0  0
    1.5730   -1.2780    0.1460 C   0  0  0  0  0  0  0  0  0  0  0  0
    2.7360   -0.6380    0.0310 C   0  0  0  0  0  0  0  0  0  0  0  0
    2.8140    0.5930   -0.4980 C   0  0  0  0  0  0  0  0  0  0  0  0
    4.0820    1.4490   -0.5660 C   0  0  1  0  0  0  0  0  0  0  0  0
    4.1890    2.3900    0.6550 C   0  0  0  0  0  0  0  0  0  0  0  0
    5.3540    0.7120   -0.7160 N   0  0  0  0  0  0  0  0  0  0  0  0
    1.6860    1.1310   -0.9590 C   0  0  0  0  0  0  0  0  0  0  0  0
    0.5220    0.5030   -0.8270 C   0  0  0  0  0  0  0  0  0  0  0  0
   -0.8510   -2.6140   -0.1900 C   0  0  0  0  0  0  0  0  0  0  0  0
   -2.8690   -6.4530   -0.7360 H   0  0  0  0  0  0  0  0  0  0  0  0
   -3.6530   -5.3750    0.4490 H   0  0  0  0  0  0  0  0  0  0  0  0
   -3.8080   -5.0530   -1.3130 H   0  0  0  0  0  0  0  0  0  0  0  0
   -4.1070   -3.0500   -0.1710 H   0  0  0  0  0  0  0  0  0  0  0  0
   -4.0520   -0.7740    0.2960 H   0  0  0  0  0  0  0  0  0  0  0  0
   -0.1260    0.5170    1.7890 H   0  0  0  0  0  0  0  0  0  0  0  0
   -0.0570    2.7430    2.5140 H   0  0  0  0  0  0  0  0  0  0  0  0
   -1.8060    4.2680    1.9760 H   0  0  0  0  0  0  0  0  0  0  0  0
   -3.8300    1.2390   -0.1040 H   0  0  0  0  0  0  0  0  0  0  0  0
    1.5810   -2.2410    0.6520 H   0  0  0  0  0  0  0  0  0  0  0  0
    3.5970   -1.1550    0.4170 H   0  0  0  0  0  0  0  0  0  0  0  0
    4.0010    2.0900   -1.4480 H   0  0  0  0  0  0  0  0  0  0  0  0
    5.0820    3.0140    0.5740 H   0  0  0  0  0  0  0  0  0  0  0  0
    4.2530    1.8260    1.5890 H   0  0  0  0  0  0  0  0  0  0  0  0
    3.3190    3.0450    0.7190 H   0  0  0  0  0  0  0  0  0  0  0  0
    5.6020    0.7790   -1.7010 H   0  0  0  0  0  0  0  0  0  0  0  0
    1.7020    2.1120   -1.4270 H   0  0  0  0  0  0  0  0  0  0  0  0
   -0.3590    0.9980   -1.2280 H   0  0  0  0  0  0  0  0  0  0  0  0
    0.0400   -3.2030   -0.3930 H   0  0  0  0  0  0  0  0  0  0  0  0
   11.4000   -5.1210    5.2000 C   0  0  0  0  0  0  0  0  0  0  0  0
   11.8060   -5.0470    3.8090 O   0  0  0  0  0  0  0  0  0  0  0  0
   11.1220   -4.2260    2.9460 C   0  0  0  0  0  0  0  0  0  0  0  0
   10.0990   -3.4530    3.3160 C   0  0  0  0  0  0  0  0  0  0  0  0
    9.4690   -2.6920    2.4280 C   0  0  0  0  0  0  0  0  0  0  0  0
    9.8110   -2.6770    1.1270 C   0  0  0  0  0  0  0  0  0  0  0  0
    9.2470   -1.7600    0.2930 C   0  0  0  0  0  0  0  0  0  0  0  0
    9.8780   -1.2470   -0.7850 C   0  0  0  0  0  0  0  0  0  0  0  0
    9.2930   -0.3760   -1.6050 C   0  0  0  0  0  0  0  0  0  0  0  0
    8.0490    0.0240   -1.3720 C   0  0  0  0  0  0  0  0  0  0  0  0
    7.4110   -0.4160   -0.2820 C   0  0  0  0  0  0  0  0  0  0  0  0
    6.1810   -0.0310    0.0430 C   0  0  0  0  0  0  0  0  0  0  0  0
    5.5700   -0.2620    1.0790 O   0  0  0  0  0  0  0  0  0  0  0  0
    8.0200   -1.2820    0.5320 C   0  0  0  0  0  0  0  0  0  0  0  0
   10.7940   -3.5290    0.7380 C   0  0  0  0  0  0  0  0  0  0  0  0
   11.0160   -3.8330   -0.5500 C   0  0  0  0  0  0  0  0  0  0  0  0
   12.2540   -3.8380   -1.0520 C   0  0  0  0  0  0  0  0  0  0  0  0
   12.4440   -4.0230   -2.3540 C   0  0  0  0  0  0  0  0  0  0  0  0
   11.4440   -4.3780   -3.1750 C   0  0  0  0  0  0  0  0  0  0  0  0
   11.6490   -4.7450   -4.6490 C   0  0  1  0  0  0  0  0  0  0  0  0
   12.1020   -3.5330   -5.4860 C   0  0  0  0  0  0  0  0  0  0  0  0
   12.5420   -5.9220   -4.8870 N   0  0  0  0  0  0  0  0  0  0  0  0
   10.2110   -4.3980   -2.6660 C   0  0  0  0  0  0  0  0  0  0  0  0
    9.9960   -4.0930   -1.3860 C   0  0  0  0  0  0  0  0  0  0  0  0
   11.4650   -4.2400    1.6580 C   0  0  0  0  0  0  0  0  0  0  0  0
   12.0190   -5.8630    5.7100 H   0  0  0  0  0  0  0  0  0  0  0  0
   11.5430   -4.1440    5.6720 H   0  0  0  0  0  0  0  0  0  0  0  0
   10.3500   -5.4220    5.2680 H   0  0  0  0  0  0  0  0  0  0  0  0
    9.7690   -3.3980    4.3490 H   0  0  0  0  0  0  0  0  0  0  0  0
    8.7150   -2.0320    2.8420 H   0  0  0  0  0  0  0  0  0  0  0  0
   10.9120   -1.4840   -1.0110 H   0  0  0  0  0  0  0  0  0  0  0  0
    9.8420    0.0150   -2.4600 H   0  0  0  0  0  0  0  0  0  0  0  0
    7.5890    0.7360   -2.0530 H   0  0  0  0  0  0  0  0  0  0  0  0
    7.4450   -1.6710    1.3640 H   0  0  0  0  0  0  0  0  0  0  0  0
   13.1040   -3.5810   -0.4250 H   0  0  0  0  0  0  0  0  0  0  0  0
   13.4480   -3.8680   -2.7240 H   0  0  0  0  0  0  0  0  0  0  0  0
   10.6720   -5.0390   -5.0450 H   0  0  0  0  0  0  0  0  0  0  0  0
   12.1510   -3.7970   -6.5450 H   0  0  0  0  0  0  0  0  0  0  0  0
   13.0860   -3.1830   -5.1690 H   0  0  0  0  0  0  0  0  0  0  0  0
   11.3900   -2.7120   -5.3750 H   0  0  0  0  0  0  0  0  0  0  0  0
   12.1030   -6.4570   -5.6330 H   0  0  0  0  0  0  0  0  0  0  0  0
    9.3610   -4.6500   -3.2970 H   0  0  0  0  0  0  0  0  0  0  0  0
    8.9710   -4.1100   -1.0190 H   0  0  0  0  0  0  0  0  0  0  0  0
   12.2420   -4.9400    1.3490 H   0  0  0  0  0  0  0  0  0  0  0  0
   22.8070   -5.0990   -4.9740 C   0  0  0  0  0  0  0  0  0  0  0  0
   22.2710   -6.4150   -5.2660 O   0  0  0  0  0  0  0  0  0  0  0  0
   20.9130   -6.5900   -5.3960 C   0  0  0  0  0  0  0  0  0  0  0  0
   20.0230   -5.6140   -5.2200 C   0  0  0  0  0  0  0  0  0  0  0  0
   18.7270   -5.8580   -5.3670 C   0  0  0  0  0  0  0  0  0  0  0  0
   18.2710   -7.0790   -5.6940 C   0  0  0  0  0  0  0  0  0  0  0  0
   16.9720   -7.1600   -6.0550 C   0  0  0  0  0  0  0  0  0  0  0  0
   16.5600   -7.8750   -7.1180 C   0  0  0  0  0  0  0  0  0  0  0  0
   15.2740   -7.8990   -7.4740 C   0  0  0  0  0  0  0  0  0  0  0  0
   14.3590   -7.2610   -6.7440 C   0  0  0  0  0  0  0  0  0  0  0  0
   14.7370   -6.6200   -5.6340 C   0  0  0  0  0  0  0  0  0  0  0  0
   13.8760   -6.1020   -4.7620 C   0  0  0  0  0  0  0  0  0  0  0  0
   14.1260   -5.7900   -3.6120 O   0  0  0  0  0  0  0  0  0  0  0  0
   16.0370   -6.5350   -5.3380 C   0  0  0  0  0  0  0  0  0  0  0  0
   19.1540   -8.1140   -5.7670 C   0  0  0  0  0  0  0  0  0  0  0  0
   18.7740   -9.4210   -5.7710 C   0  0  0  0  0  0  0  0  0  0  0  0
   19.5500  -10.4130   -6.2420 C   0  0  0  0  0  0  0  0  0  0  0  0
   19.1530  -11.6890   -6.2190 C   0  0  0  0  0  0  0  0  0  0  0  0
   17.9730  -12.0430   -5.6940 C   0  0  0  0  0  0  0  0  0  0  0  0
   17.4230  -13.4670   -5.6620 C   0  0  1  0  0  0  0  0  0  0  0  0
   16.2150  -13.5940   -6.6210 C   0  0  0  0  0  0  0  0  0  0  0  0
   18.4200  -14.5290   -5.9400 N   0  0  0  0  0  0  0  0  0  0  0  0
   17.2220  -11.0780   -5.1690 C   0  0  0  0  0  0  0  0  0  0  0  0
   17.6120   -9.8100   -5.2050 C   0  0  0  0  0  0  0  0  0  0  0  0
   20.4680   -7.8200   -5.6650 C   0  0  0  0  0  0  0  0  0  0  0  0
   23.8940   -5.1730   -4.8930 H   0  0  0  0  0  0  0  0  0  0  0  0
   22.5500   -4.4100   -5.7830 H   0  0  0  0  0  0  0  0  0  0  0  0
   22.4010   -4.7360   -4.0250 H   0  0  0  0  0  0  0  0  0  0  0  0
   20.3260   -4.5960   -4.9900 H   0  0  0  0  0  0  0  0  0  0  0  0
   18.0600   -5.0010   -5.3030 H   0  0  0  0  0  0  0  0  0  0  0  0
   17.2780   -8.4030   -7.7410 H   0  0  0  0  0  0  0  0  0  0  0  0
   14.9680   -8.4600   -8.3540 H   0  0  0  0  0  0  0  0  0  0  0  0
   13.3100   -7.3350   -7.0210 H   0  0  0  0  0  0  0  0  0  0  0  0
   16.3430   -6.0020   -4.4390 H   0  0  0  0  0  0  0  0  0  0  0  0
   20.5060  -10.2080   -6.7140 H   0  0  0  0  0  0  0  0  0  0  0  0
   19.8180  -12.4290   -6.6480 H   0  0  0  0  0  0  0  0  0  0  0  0
   17.0440  -13.6530   -4.6520 H   0  0  0  0  0  0  0  0  0  0  0  0
   15.8310  -14.6160   -6.6270 H   0  0  0  0  0  0  0  0  0  0  0  0
   16.4930  -13.3210   -7.6410 H   0  0  0  0  0  0  0  0  0  0  0  0
   15.4030  -12.9330   -6.3110 H   0  0  0  0  0  0  0  0  0  0  0  0
   18.5930  -15.0090   -5.0600 H   0  0  0  0  0  0  0  0  0  0  0  0
   16.2720  -11.3200   -4.6980 H   0  0  0  0  0  0  0  0  0  0  0  0
   16.9570   -9.1140   -4.6930 H   0  0  0  0  0  0  0  0  0  0  0  0
   21.2260   -8.5950   -5.6960 H   0  0  0  0  0  0  0  0  0  0  0  0
   -4.3560    5.2930    2.3300 C   0  0  0  0  0  0  0  0  0  0  0  0
   -3.9790    4.9890    0.9650 O   0  0  0  0  0  0  0  0  0  0  0  0
   -5.3540    4.8960    2.5290 H   0  0  0  0  0  0  0  0  0  0  0  0
   -4.3600    6.3790    2.4560 H   0  0  0  0  0  0  0  0  0  0  0  0
   -3.6380    4.8550    3.0290 H   0  0  0  0  0  0  0  0  0  0  0  0
   22.2050  -16.9950   -6.6460 C   0  0  0  0  0  0  0  0  0  0  0  0
   21.3130  -15.9590   -7.3670 C   0  0  0  0  0  0  0  0  0  0  0  0
   22.1090  -14.6450   -7.5630 C   0  0  0  0  0  0  0  0  0  0  0  0
   20.8570  -16.5530   -8.7260 C   0  0  0  0  0  0  0  0  0  0  0  0
   20.1640  -15.7110   -6.4970 O   0  0  0  0  0  0  0  0  0  0  0  0
   19.1550  -14.9330   -6.9910 C   0  0  0  0  0  0  0  0  0  0  0  0
   18.8130  -14.3930   -8.0360 O   0  0  0  0  0  0  0  0  0  0  0  0
   23.0850  -17.2330   -7.2500 H   0  0  0  0  0  0  0  0  0  0  0  0
   22.5490  -16.6120   -5.6830 H   0  0  0  0  0  0  0  0  0  0  0  0
   21.6550  -17.9220   -6.4690 H   0  0  0  0  0  0  0  0  0  0  0  0
   22.4360  -14.2460   -6.5990 H   0  0  0  0  0  0  0  0  0  0  0  0
   21.5040  -13.8810   -8.0560 H   0  0  0  0  0  0  0  0  0  0  0  0
   22.9960  -14.8180   -8.1770 H   0  0  0  0  0  0  0  0  0  0  0  0
   20.1120  -17.3370   -8.5720 H   0  0  0  0  0  0  0  0  0  0  0  0
   20.4200  -15.7890   -9.3720 H   0  0  0  0  0  0  0  0  0  0  0  0
   21.7020  -16.9840   -9.2670 H   0  0  0  0  0  0  0  0  0  0  0  0
  1  2  1  0  0  0  0
  1 26  1  0  0  0  0
  1 27  1  0  0  0  0
  1 28  1  0  0  0  0
  2  3  1  0  0  0  0
  3  4  2  0  0  0  0
  3 25  1  0  0  0  0
  4  5  1  0  0  0  0
  4 29  1  0  0  0  0
  5  6  2  0  0  0  0
  5 30  1  0  0  0  0
  6  7  1  0  0  0  0
  6 15  1  0  0  0  0
  7  8  2  0  0  0  0
  7 14  1  0  0  0  0
  8  9  1  0  0  0  0
  8 31  1  0  0  0  0
  9 10  2  0  0  0  0
  9 32  1  0  0  0  0
 10 11  1  0  0  0  0
 10 33  1  0  0  0  0
 11 12  1  0  0  0  0
 11 14  2  0  0  0  0
 12 13  2  0  0  0  0
 12134  1  0  0  0  0
 14 34  1  0  0  0  0
 15 16  1  0  0  0  0
 15 25  2  0  0  0  0
 16 17  2  0  0  0  0
 16 24  1  0  0  0  0
 17 18  1  0  0  0  0
 17 35  1  0  0  0  0
 18 19  2  0  0  0  0
 18 36  1  0  0  0  0
 19 20  1  0  0  0  0
 19 23  1  0  0  0  0
 20 21  1  0  0  0  0
 20 22  1  0  0  0  0
 20 37  1  6  0  0  0
 21 38  1  0  0  0  0
 21 39  1  0  0  0  0
 21 40  1  0  0  0  0
 22 41  1  0  0  0  0
 22 56  1  0  0  0  0
 23 24  2  0  0  0  0
 23 42  1  0  0  0  0
 24 43  1  0  0  0  0
 25 44  1  0  0  0  0
 45 46  1  0  0  0  0
 45 70  1  0  0  0  0
 45 71  1  0  0  0  0
 45 72  1  0  0  0  0
 46 47  1  0  0  0  0
 47 48  2  0  0  0  0
 47 69  1  0  0  0  0
 48 49  1  0  0  0  0
 48 73  1  0  0  0  0
 49 50  2  0  0  0  0
 49 74  1  0  0  0  0
 50 51  1  0  0  0  0
 50 59  1  0  0  0  0
 51 52  2  0  0  0  0
 51 58  1  0  0  0  0
 52 53  1  0  0  0  0
 52 75  1  0  0  0  0
 53 54  2  0  0  0  0
 53 76  1  0  0  0  0
 54 55  1  0  0  0  0
 54 77  1  0  0  0  0
 55 56  1  0  0  0  0
 55 58  2  0  0  0  0
 56 57  2  0  0  0  0
 58 78  1  0  0  0  0
 59 60  1  0  0  0  0
 59 69  2  0  0  0  0
 60 61  2  0  0  0  0
 60 68  1  0  0  0  0
 61 62  1  0  0  0  0
 61 79  1  0  0  0  0
 62 63  2  0  0  0  0
 62 80  1  0  0  0  0
 63 64  1  0  0  0  0
 63 67  1  0  0  0  0
 64 65  1  0  0  0  0
 64 66  1  0  0  0  0
 64 81  1  6  0  0  0
 65 82  1  0  0  0  0
 65 83  1  0  0  0  0
 65 84  1  0  0  0  0
 66 85  1  0  0  0  0
 66100  1  0  0  0  0
 67 68  2  0  0  0  0
 67 86  1  0  0  0  0
 68 87  1  0  0  0  0
 69 88  1  0  0  0  0
 89 90  1  0  0  0  0
 89114  1  0  0  0  0
 89115  1  0  0  0  0
 89116  1  0  0  0  0
 90 91  1  0  0  0  0
 91 92  2  0  0  0  0
 91113  1  0  0  0  0
 92 93  1  0  0  0  0
 92117  1  0  0  0  0
 93 94  2  0  0  0  0
 93118  1  0  0  0  0
 94 95  1  0  0  0  0
 94103  1  0  0  0  0
 95 96  2  0  0  0  0
 95102  1  0  0  0  0
 96 97  1  0  0  0  0
 96119  1  0  0  0  0
 97 98  2  0  0  0  0
 97120  1  0  0  0  0
 98 99  1  0  0  0  0
 98121  1  0  0  0  0
 99100  1  0  0  0  0
 99102  2  0  0  0  0
100101  2  0  0  0  0
102122  1  0  0  0  0
103104  1  0  0  0  0
103113  2  0  0  0  0
104105  2  0  0  0  0
104112  1  0  0  0  0
105106  1  0  0  0  0
105123  1  0  0  0  0
106107  2  0  0  0  0
106124  1  0  0  0  0
107108  1  0  0  0  0
107111  1  0  0  0  0
108109  1  0  0  0  0
108110  1  0  0  0  0
108125  1  1  0  0  0
109126  1  0  0  0  0
109127  1  0  0  0  0
109128  1  0  0  0  0
110129  1  0  0  0  0
110143  1  0  0  0  0
111112  2  0  0  0  0
111130  1  0  0  0  0
112131  1  0  0  0  0
113132  1  0  0  0  0
133134  1  0  0  0  0
133135  1  0  0  0  0
133136  1  0  0  0  0
133137  1  0  0  0  0
138139  1  0  0  0  0
138145  1  0  0  0  0
138146  1  0  0  0  0
138147  1  0  0  0  0
139140  1  0  0  0  0
139141  1  0  0  0  0
139142  1  0  0  0  0
140148  1  0  0  0  0
140149  1  0  0  0  0
140150  1  0  0  0  0
141151  1  0  0  0  0
141152  1  0  0  0  0
141153  1  0  0  0  0
142143  1  0  0  0  0
143144  2  0  0  0  0
M  END
