pop_octamer_mbuild.pdb
 OpenBabel08142312523D

373396  0  0  1  0  0  0  0  0999 V2000
   -2.1670   -4.6390   -1.5100 C   0  0  0  0  0  0  0  0  0  0  0  0
   -1.3690   -5.0350   -2.3490 O   0  0  0  0  0  0  0  0  0  0  0  0
   -2.2170   -3.2080   -1.1460 C   0  0  0  0  0  0  0  0  0  0  0  0
   -3.0990   -2.7630   -0.1460 C   0  0  0  0  0  0  0  0  0  0  0  0
   -3.0630   -1.4380    0.2930 C   0  0  0  0  0  0  0  0  0  0  0  0
   -2.1270   -0.5390   -0.2430 C   0  0  0  0  0  0  0  0  0  0  0  0
   -1.9960    0.8460    0.2980 C   0  0  0  0  0  0  0  0  0  0  0  0
   -0.7260    1.4840    0.4930 C   0  0  0  0  0  0  0  0  0  0  0  0
   -0.7080    2.8350    0.8980 C   0  0  0  0  0  0  0  0  0  0  0  0
   -1.8890    3.5400    1.1490 C   0  0  0  0  0  0  0  0  0  0  0  0
   -1.7950    4.8370    1.5430 O   0  0  0  0  0  0  0  0  0  0  0  0
   -2.8570    5.6750    1.8140 C   0  0  0  0  0  0  0  0  0  0  0  0
   -3.1230    2.8880    0.9980 C   0  0  0  0  0  0  0  0  0  0  0  0
   -3.1720    1.5610    0.5800 C   0  0  0  0  0  0  0  0  0  0  0  0
    0.5870    0.7630    0.3380 C   0  0  0  0  0  0  0  0  0  0  0  0
    1.7110    1.4150   -0.2000 C   0  0  0  0  0  0  0  0  0  0  0  0
    2.9100    0.7230   -0.3950 C   0  0  0  0  0  0  0  0  0  0  0  0
    3.0250   -0.6360   -0.0500 C   0  0  0  0  0  0  0  0  0  0  0  0
    1.9270   -1.2790    0.5330 C   0  0  0  0  0  0  0  0  0  0  0  0
    0.7300   -0.5880    0.7310 C   0  0  0  0  0  0  0  0  0  0  0  0
    4.3160   -1.3880   -0.3160 C   0  0  2  0  0  0  0  0  0  0  0  0
    5.4150   -0.7360    0.3870 N   0  0  0  0  0  0  0  0  0  0  0  0
    4.5870   -1.4320   -1.8260 C   0  0  0  0  0  0  0  0  0  0  0  0
   -1.2920   -0.9770   -1.2920 C   0  0  0  0  0  0  0  0  0  0  0  0
   -1.3350   -2.2940   -1.7370 C   0  0  0  0  0  0  0  0  0  0  0  0
   -3.7930   -3.4480    0.3250 H   0  0  0  0  0  0  0  0  0  0  0  0
   -3.7260   -1.1370    1.0950 H   0  0  0  0  0  0  0  0  0  0  0  0
    0.2320    3.3470    1.0560 H   0  0  0  0  0  0  0  0  0  0  0  0
   -2.4690    6.6710    2.1080 H   0  0  0  0  0  0  0  0  0  0  0  0
   -3.4630    5.2690    2.6520 H   0  0  0  0  0  0  0  0  0  0  0  0
   -3.4910    5.7940    0.9090 H   0  0  0  0  0  0  0  0  0  0  0  0
   -4.0560    3.4020    1.1870 H   0  0  0  0  0  0  0  0  0  0  0  0
   -4.1440    1.1030    0.4430 H   0  0  0  0  0  0  0  0  0  0  0  0
    1.6570    2.4500   -0.5090 H   0  0  0  0  0  0  0  0  0  0  0  0
    3.7480    1.2470   -0.8370 H   0  0  0  0  0  0  0  0  0  0  0  0
    1.9860   -2.3190    0.8240 H   0  0  0  0  0  0  0  0  0  0  0  0
   -0.0890   -1.1240    1.1910 H   0  0  0  0  0  0  0  0  0  0  0  0
    4.2460   -2.4480   -0.0580 H   0  0  0  0  0  0  0  0  0  0  0  0
    6.1140   -0.2550   -0.2030 H   0  0  0  0  0  0  0  0  0  0  0  0
    3.7490   -1.9470   -2.3430 H   0  0  0  0  0  0  0  0  0  0  0  0
    4.7050   -0.4160   -2.2540 H   0  0  0  0  0  0  0  0  0  0  0  0
    5.5180   -2.0080   -2.0200 H   0  0  0  0  0  0  0  0  0  0  0  0
   -0.5810   -0.3030   -1.7530 H   0  0  0  0  0  0  0  0  0  0  0  0
   -0.6480   -2.6040   -2.5150 H   0  0  0  0  0  0  0  0  0  0  0  0
    5.5610   -0.5840    1.7430 C   0  0  0  0  0  0  0  0  0  0  0  0
    6.4440    0.1740    2.1240 O   0  0  0  0  0  0  0  0  0  0  0  0
    4.7440   -1.2550    2.8190 C   0  0  0  0  0  0  0  0  0  0  0  0
    4.1230   -2.5150    2.6770 C   0  0  0  0  0  0  0  0  0  0  0  0
    3.4450   -3.1150    3.7340 C   0  0  0  0  0  0  0  0  0  0  0  0
    3.3910   -2.4970    4.9850 C   0  0  0  0  0  0  0  0  0  0  0  0
    2.7570   -3.2020    6.1300 C   0  0  0  0  0  0  0  0  0  0  0  0
    3.3720   -3.2990    7.4180 C   0  0  0  0  0  0  0  0  0  0  0  0
    2.6470   -3.9160    8.4600 C   0  0  0  0  0  0  0  0  0  0  0  0
    1.3730   -4.4600    8.2460 C   0  0  0  0  0  0  0  0  0  0  0  0
    0.7430   -5.0650    9.2860 O   0  0  0  0  0  0  0  0  0  0  0  0
   -0.4940   -5.6780    9.2280 C   0  0  0  0  0  0  0  0  0  0  0  0
    0.8020   -4.3830    6.9660 C   0  0  0  0  0  0  0  0  0  0  0  0
    1.4860   -3.7650    5.9260 C   0  0  0  0  0  0  0  0  0  0  0  0
    4.7810   -2.8290    7.6840 C   0  0  0  0  0  0  0  0  0  0  0  0
    5.1420   -2.2870    8.9300 C   0  0  0  0  0  0  0  0  0  0  0  0
    6.4410   -1.8150    9.1500 C   0  0  0  0  0  0  0  0  0  0  0  0
    7.4140   -1.8760    8.1350 C   0  0  0  0  0  0  0  0  0  0  0  0
    7.0760   -2.4570    6.9110 C   0  0  0  0  0  0  0  0  0  0  0  0
    5.7860   -2.9350    6.6940 C   0  0  0  0  0  0  0  0  0  0  0  0
    8.8050   -1.3180    8.3680 C   0  0  2  0  0  0  0  0  0  0  0  0
    9.4240   -2.0080    9.4940 N   0  0  0  0  0  0  0  0  0  0  0  0
    8.7190    0.1910    8.6340 C   0  0  0  0  0  0  0  0  0  0  0  0
    3.9940   -1.2380    5.1450 C   0  0  0  0  0  0  0  0  0  0  0  0
    4.6620   -0.6300    4.0810 C   0  0  0  0  0  0  0  0  0  0  0  0
    4.1850   -3.1070    1.7980 H   0  0  0  0  0  0  0  0  0  0  0  0
    3.0140   -4.0990    3.5910 H   0  0  0  0  0  0  0  0  0  0  0  0
    3.0820   -4.0190    9.4460 H   0  0  0  0  0  0  0  0  0  0  0  0
   -0.7420   -6.0960   10.2240 H   0  0  0  0  0  0  0  0  0  0  0  0
   -0.4750   -6.5110    8.4920 H   0  0  0  0  0  0  0  0  0  0  0  0
   -1.2760   -4.9410    8.9460 H   0  0  0  0  0  0  0  0  0  0  0  0
   -0.1780   -4.7930    6.7630 H   0  0  0  0  0  0  0  0  0  0  0  0
    1.0050   -3.7010    4.9580 H   0  0  0  0  0  0  0  0  0  0  0  0
    4.4180   -2.1930    9.7280 H   0  0  0  0  0  0  0  0  0  0  0  0
    6.6810   -1.3820   10.1130 H   0  0  0  0  0  0  0  0  0  0  0  0
    7.8040   -2.5360    6.1140 H   0  0  0  0  0  0  0  0  0  0  0  0
    5.5870   -3.3910    5.7350 H   0  0  0  0  0  0  0  0  0  0  0  0
    9.4340   -1.3660    7.4760 H   0  0  0  0  0  0  0  0  0  0  0  0
    9.5540   -1.4530   10.3540 H   0  0  0  0  0  0  0  0  0  0  0  0
    8.2590    0.7000    7.7580 H   0  0  0  0  0  0  0  0  0  0  0  0
    8.1190    0.4180    9.5380 H   0  0  0  0  0  0  0  0  0  0  0  0
    9.7420    0.6030    8.7740 H   0  0  0  0  0  0  0  0  0  0  0  0
    3.9620   -0.7310    6.1020 H   0  0  0  0  0  0  0  0  0  0  0  0
    5.1280    0.3330    4.2530 H   0  0  0  0  0  0  0  0  0  0  0  0
    9.7430   -3.3400    9.5810 C   0  0  0  0  0  0  0  0  0  0  0  0
   10.0660   -3.7610   10.6860 O   0  0  0  0  0  0  0  0  0  0  0  0
    9.7460   -4.3500    8.4570 C   0  0  0  0  0  0  0  0  0  0  0  0
    9.9620   -4.0350    7.0970 C   0  0  0  0  0  0  0  0  0  0  0  0
   10.0340   -5.0270    6.1210 C   0  0  0  0  0  0  0  0  0  0  0  0
    9.9280   -6.3750    6.4680 C   0  0  0  0  0  0  0  0  0  0  0  0
   10.1230   -7.4250    5.4290 C   0  0  0  0  0  0  0  0  0  0  0  0
   10.9440   -8.5780    5.6380 C   0  0  0  0  0  0  0  0  0  0  0  0
   10.9960   -9.5570    4.6190 C   0  0  0  0  0  0  0  0  0  0  0  0
   10.3000   -9.3980    3.4140 C   0  0  0  0  0  0  0  0  0  0  0  0
   10.4180  -10.3640    2.4650 O   0  0  0  0  0  0  0  0  0  0  0  0
    9.8330  -10.3360    1.2140 C   0  0  0  0  0  0  0  0  0  0  0  0
    9.5260   -8.2440    3.2170 C   0  0  0  0  0  0  0  0  0  0  0  0
    9.4420   -7.2740    4.2100 C   0  0  0  0  0  0  0  0  0  0  0  0
   11.8020   -8.7570    6.8630 C   0  0  0  0  0  0  0  0  0  0  0  0
   12.0290  -10.0310    7.4140 C   0  0  0  0  0  0  0  0  0  0  0  0
   12.7890  -10.1780    8.5790 C   0  0  0  0  0  0  0  0  0  0  0  0
   13.3480   -9.0570    9.2230 C   0  0  0  0  0  0  0  0  0  0  0  0
   13.1680   -7.7950    8.6510 C   0  0  0  0  0  0  0  0  0  0  0  0
   12.4220   -7.6480    7.4870 C   0  0  0  0  0  0  0  0  0  0  0  0
   14.1290   -9.2190   10.5130 C   0  0  2  0  0  0  0  0  0  0  0  0
   15.2720  -10.0910   10.2870 N   0  0  0  0  0  0  0  0  0  0  0  0
   13.2110   -9.7860   11.6040 C   0  0  0  0  0  0  0  0  0  0  0  0
    9.6960   -6.7090    7.8130 C   0  0  0  0  0  0  0  0  0  0  0  0
    9.6120   -5.7150    8.7890 C   0  0  0  0  0  0  0  0  0  0  0  0
   10.1480   -3.0520    6.7420 H   0  0  0  0  0  0  0  0  0  0  0  0
   10.2410   -4.7400    5.0970 H   0  0  0  0  0  0  0  0  0  0  0  0
   11.6140  -10.4370    4.7350 H   0  0  0  0  0  0  0  0  0  0  0  0
   10.1200  -11.2500    0.6550 H   0  0  0  0  0  0  0  0  0  0  0  0
   10.1880   -9.4490    0.6440 H   0  0  0  0  0  0  0  0  0  0  0  0
    8.7260  -10.3080    1.3060 H   0  0  0  0  0  0  0  0  0  0  0  0
    8.9760   -8.0870    2.2980 H   0  0  0  0  0  0  0  0  0  0  0  0
    8.8150   -6.4090    4.0330 H   0  0  0  0  0  0  0  0  0  0  0  0
   11.5920  -10.9160    6.9700 H   0  0  0  0  0  0  0  0  0  0  0  0
   12.9250  -11.1690    8.9920 H   0  0  0  0  0  0  0  0  0  0  0  0
   13.6000   -6.9140    9.1080 H   0  0  0  0  0  0  0  0  0  0  0  0
   12.3310   -6.6530    7.0810 H   0  0  0  0  0  0  0  0  0  0  0  0
   14.4370   -8.2590   10.9390 H   0  0  0  0  0  0  0  0  0  0  0  0
   15.2320  -11.0220   10.7350 H   0  0  0  0  0  0  0  0  0  0  0  0
   12.3550   -9.0960   11.7720 H   0  0  0  0  0  0  0  0  0  0  0  0
   12.8190  -10.7870   11.3340 H   0  0  0  0  0  0  0  0  0  0  0  0
   13.7770   -9.8720   12.5570 H   0  0  0  0  0  0  0  0  0  0  0  0
    9.5990   -7.7460    8.1130 H   0  0  0  0  0  0  0  0  0  0  0  0
    9.4530   -6.0210    9.8160 H   0  0  0  0  0  0  0  0  0  0  0  0
   16.3400   -9.8670    9.4530 C   0  0  0  0  0  0  0  0  0  0  0  0
   17.0890  -10.8130    9.2480 O   0  0  0  0  0  0  0  0  0  0  0  0
   16.6940   -8.5710    8.7620 C   0  0  0  0  0  0  0  0  0  0  0  0
   16.3670   -7.2880    9.2520 C   0  0  0  0  0  0  0  0  0  0  0  0
   16.7960   -6.1300    8.6070 C   0  0  0  0  0  0  0  0  0  0  0  0
   17.5980   -6.2080    7.4670 C   0  0  0  0  0  0  0  0  0  0  0  0
   18.1420   -4.9620    6.8590 C   0  0  0  0  0  0  0  0  0  0  0  0
   19.5120   -4.8240    6.4690 C   0  0  0  0  0  0  0  0  0  0  0  0
   19.9100   -3.6320    5.8260 C   0  0  0  0  0  0  0  0  0  0  0  0
   19.0070   -2.5830    5.6030 C   0  0  0  0  0  0  0  0  0  0  0  0
   19.4630   -1.4500    5.0070 O   0  0  0  0  0  0  0  0  0  0  0  0
   18.7150   -0.3140    4.7680 C   0  0  0  0  0  0  0  0  0  0  0  0
   17.6740   -2.7260    6.0220 C   0  0  0  0  0  0  0  0  0  0  0  0
   17.2520   -3.8970    6.6400 C   0  0  0  0  0  0  0  0  0  0  0  0
   20.5540   -5.8680    6.7810 C   0  0  0  0  0  0  0  0  0  0  0  0
   21.6190   -6.1210    5.8970 C   0  0  0  0  0  0  0  0  0  0  0  0
   22.5500   -7.1280    6.1740 C   0  0  0  0  0  0  0  0  0  0  0  0
   22.4480   -7.9040    7.3440 C   0  0  0  0  0  0  0  0  0  0  0  0
   21.4220   -7.6240    8.2500 C   0  0  0  0  0  0  0  0  0  0  0  0
   20.5000   -6.6160    7.9800 C   0  0  0  0  0  0  0  0  0  0  0  0
   23.4300   -9.0300    7.6130 C   0  0  2  0  0  0  0  0  0  0  0  0
   24.7800   -8.4910    7.6820 N   0  0  0  0  0  0  0  0  0  0  0  0
   23.3150  -10.0900    6.5110 C   0  0  0  0  0  0  0  0  0  0  0  0
   17.9230   -7.4760    6.9540 C   0  0  0  0  0  0  0  0  0  0  0  0
   17.4820   -8.6360    7.5940 C   0  0  0  0  0  0  0  0  0  0  0  0
   15.8440   -7.1190   10.1600 H   0  0  0  0  0  0  0  0  0  0  0  0
   16.5530   -5.1680    9.0410 H   0  0  0  0  0  0  0  0  0  0  0  0
   20.9390   -3.4860    5.5260 H   0  0  0  0  0  0  0  0  0  0  0  0
   19.3570    0.4510    4.2860 H   0  0  0  0  0  0  0  0  0  0  0  0
   18.3310    0.1020    5.7250 H   0  0  0  0  0  0  0  0  0  0  0  0
   17.8670   -0.5450    4.0880 H   0  0  0  0  0  0  0  0  0  0  0  0
   16.9500   -1.9370    5.8690 H   0  0  0  0  0  0  0  0  0  0  0  0
   16.2110   -3.9820    6.9280 H   0  0  0  0  0  0  0  0  0  0  0  0
   21.7150   -5.5710    4.9700 H   0  0  0  0  0  0  0  0  0  0  0  0
   23.3430   -7.3160    5.4620 H   0  0  0  0  0  0  0  0  0  0  0  0
   21.3240   -8.1890    9.1680 H   0  0  0  0  0  0  0  0  0  0  0  0
   19.7410   -6.4310    8.7240 H   0  0  0  0  0  0  0  0  0  0  0  0
   23.1790   -9.5970    8.5140 H   0  0  0  0  0  0  0  0  0  0  0  0
   25.4080   -8.7360    6.8980 H   0  0  0  0  0  0  0  0  0  0  0  0
   22.2810  -10.4990    6.4870 H   0  0  0  0  0  0  0  0  0  0  0  0
   23.5630   -9.6760    5.5120 H   0  0  0  0  0  0  0  0  0  0  0  0
   24.0120  -10.9280    6.7280 H   0  0  0  0  0  0  0  0  0  0  0  0
   18.5360   -7.5690    6.0660 H   0  0  0  0  0  0  0  0  0  0  0  0
   17.7740   -9.5910    7.1750 H   0  0  0  0  0  0  0  0  0  0  0  0
   25.2770   -7.6010    8.5990 C   0  0  0  0  0  0  0  0  0  0  0  0
   26.3740   -7.1130    8.3610 O   0  0  0  0  0  0  0  0  0  0  0  0
   24.6150   -7.1590    9.8840 C   0  0  0  0  0  0  0  0  0  0  0  0
   23.7090   -7.9440   10.6290 C   0  0  0  0  0  0  0  0  0  0  0  0
   23.1980   -7.5080   11.8500 C   0  0  0  0  0  0  0  0  0  0  0  0
   23.6030   -6.2860   12.3940 C   0  0  0  0  0  0  0  0  0  0  0  0
   23.1380   -5.8870   13.7510 C   0  0  0  0  0  0  0  0  0  0  0  0
   24.0190   -5.3640   14.7500 C   0  0  0  0  0  0  0  0  0  0  0  0
   23.4630   -4.9320   15.9740 C   0  0  0  0  0  0  0  0  0  0  0  0
   22.0920   -5.0450   16.2370 C   0  0  0  0  0  0  0  0  0  0  0  0
   21.6280   -4.6370   17.4480 O   0  0  0  0  0  0  0  0  0  0  0  0
   20.3170   -4.7150   17.8730 C   0  0  0  0  0  0  0  0  0  0  0  0
   21.2490   -5.5920   15.2570 C   0  0  0  0  0  0  0  0  0  0  0  0
   21.7670   -6.0070   14.0350 C   0  0  0  0  0  0  0  0  0  0  0  0
   25.5150   -5.3180   14.5720 C   0  0  0  0  0  0  0  0  0  0  0  0
   26.2810   -4.2740   15.1220 C   0  0  0  0  0  0  0  0  0  0  0  0
   27.6630   -4.2170   14.9100 C   0  0  0  0  0  0  0  0  0  0  0  0
   28.3180   -5.2030   14.1470 C   0  0  0  0  0  0  0  0  0  0  0  0
   27.5700   -6.2680   13.6380 C   0  0  0  0  0  0  0  0  0  0  0  0
   26.1960   -6.3310   13.8580 C   0  0  0  0  0  0  0  0  0  0  0  0
   29.8070   -5.1080   13.8780 C   0  0  2  0  0  0  0  0  0  0  0  0
   30.5300   -5.1130   15.1440 N   0  0  0  0  0  0  0  0  0  0  0  0
   30.1110   -3.8340   13.0790 C   0  0  0  0  0  0  0  0  0  0  0  0
   24.4930   -5.4830   11.6610 C   0  0  0  0  0  0  0  0  0  0  0  0
   24.9940   -5.9140   10.4310 C   0  0  0  0  0  0  0  0  0  0  0  0
   23.4120   -8.9250   10.3520 H   0  0  0  0  0  0  0  0  0  0  0  0
   22.5350   -8.1610   12.4050 H   0  0  0  0  0  0  0  0  0  0  0  0
   24.0980   -4.5410   16.7580 H   0  0  0  0  0  0  0  0  0  0  0  0
   20.2440   -4.3210   18.9070 H   0  0  0  0  0  0  0  0  0  0  0  0
   19.9760   -5.7730   17.8750 H   0  0  0  0  0  0  0  0  0  0  0  0
   19.6610   -4.1070   17.2140 H   0  0  0  0  0  0  0  0  0  0  0  0
   20.1850   -5.6960   15.4260 H   0  0  0  0  0  0  0  0  0  0  0  0
   21.0830   -6.4000   13.2930 H   0  0  0  0  0  0  0  0  0  0  0  0
   25.8150   -3.4790   15.6880 H   0  0  0  0  0  0  0  0  0  0  0  0
   28.2210   -3.3890   15.3270 H   0  0  0  0  0  0  0  0  0  0  0  0
   28.0430   -7.0520   13.0630 H   0  0  0  0  0  0  0  0  0  0  0  0
   25.6730   -7.1860   13.4570 H   0  0  0  0  0  0  0  0  0  0  0  0
   30.1650   -5.8980   13.2120 H   0  0  0  0  0  0  0  0  0  0  0  0
   30.9850   -4.2220   15.4140 H   0  0  0  0  0  0  0  0  0  0  0  0
   29.5620   -3.8580   12.1120 H   0  0  0  0  0  0  0  0  0  0  0  0
   29.8210   -2.9190   13.6360 H   0  0  0  0  0  0  0  0  0  0  0  0
   31.1990   -3.7840   12.8580 H   0  0  0  0  0  0  0  0  0  0  0  0
   24.8180   -4.5260   12.0510 H   0  0  0  0  0  0  0  0  0  0  0  0
   25.6940   -5.2710    9.9130 H   0  0  0  0  0  0  0  0  0  0  0  0
   30.5720   -6.1220   16.0740 C   0  0  0  0  0  0  0  0  0  0  0  0
   31.0630   -5.8490   17.1630 O   0  0  0  0  0  0  0  0  0  0  0  0
   30.0800   -7.5380   15.8990 C   0  0  0  0  0  0  0  0  0  0  0  0
   30.0260   -8.2180   14.6630 C   0  0  0  0  0  0  0  0  0  0  0  0
   29.6390   -9.5550   14.5820 C   0  0  0  0  0  0  0  0  0  0  0  0
   29.3260  -10.2740   15.7360 C   0  0  0  0  0  0  0  0  0  0  0  0
   29.0300  -11.7310   15.6450 C   0  0  0  0  0  0  0  0  0  0  0  0
   29.6120  -12.6970   16.5260 C   0  0  0  0  0  0  0  0  0  0  0  0
   29.2000  -14.0430   16.4100 C   0  0  0  0  0  0  0  0  0  0  0  0
   28.2780  -14.4460   15.4370 C   0  0  0  0  0  0  0  0  0  0  0  0
   27.9470  -15.7630   15.3640 O   0  0  0  0  0  0  0  0  0  0  0  0
   27.0870  -16.3250   14.4410 C   0  0  0  0  0  0  0  0  0  0  0  0
   27.7430  -13.4890   14.5610 C   0  0  0  0  0  0  0  0  0  0  0  0
   28.1170  -12.1530   14.6650 C   0  0  0  0  0  0  0  0  0  0  0  0
   30.6890  -12.3490   17.5210 C   0  0  0  0  0  0  0  0  0  0  0  0
   30.7720  -13.0060   18.7630 C   0  0  0  0  0  0  0  0  0  0  0  0
   31.7470  -12.6430   19.6980 C   0  0  0  0  0  0  0  0  0  0  0  0
   32.6700  -11.6180   19.4170 C   0  0  0  0  0  0  0  0  0  0  0  0
   32.6230  -10.9930   18.1690 C   0  0  0  0  0  0  0  0  0  0  0  0
   31.6600  -11.3620   17.2330 C   0  0  0  0  0  0  0  0  0  0  0  0
   33.6930  -11.1980   20.4540 C   0  0  2  0  0  0  0  0  0  0  0  0
   34.5310  -12.3390   20.8000 N   0  0  0  0  0  0  0  0  0  0  0  0
   32.9750  -10.6490   21.6960 C   0  0  0  0  0  0  0  0  0  0  0  0
   29.3590   -9.6110   16.9760 C   0  0  0  0  0  0  0  0  0  0  0  0
   29.7340   -8.2690   17.0540 C   0  0  0  0  0  0  0  0  0  0  0  0
   30.3330   -7.7900   13.7400 H   0  0  0  0  0  0  0  0  0  0  0  0
   29.6500  -10.0460   13.6170 H   0  0  0  0  0  0  0  0  0  0  0  0
   29.6250  -14.8050   17.0500 H   0  0  0  0  0  0  0  0  0  0  0  0
   27.0250  -17.4180   14.6190 H   0  0  0  0  0  0  0  0  0  0  0  0
   27.4670  -16.1570   13.4100 H   0  0  0  0  0  0  0  0  0  0  0  0
   26.0700  -15.8890   14.5470 H   0  0  0  0  0  0  0  0  0  0  0  0
   27.0290  -13.7640   13.7960 H   0  0  0  0  0  0  0  0  0  0  0  0
   27.6650  -11.4370   13.9880 H   0  0  0  0  0  0  0  0  0  0  0  0
   30.0630  -13.7770   19.0330 H   0  0  0  0  0  0  0  0  0  0  0  0
   31.7690  -13.1510   20.6530 H   0  0  0  0  0  0  0  0  0  0  0  0
   33.3280  -10.2120   17.9120 H   0  0  0  0  0  0  0  0  0  0  0  0
   31.6860  -10.8590   16.2780 H   0  0  0  0  0  0  0  0  0  0  0  0
   34.2950  -10.3430   20.1320 H   0  0  0  0  0  0  0  0  0  0  0  0
   34.4060  -12.7250   21.7500 H   0  0  0  0  0  0  0  0  0  0  0  0
   32.3540   -9.7710   21.4140 H   0  0  0  0  0  0  0  0  0  0  0  0
   32.3250  -11.4130   22.1680 H   0  0  0  0  0  0  0  0  0  0  0  0
   33.7270  -10.3150   22.4420 H   0  0  0  0  0  0  0  0  0  0  0  0
   29.1120  -10.1400   17.8880 H   0  0  0  0  0  0  0  0  0  0  0  0
   29.7650   -7.8050   18.0330 H   0  0  0  0  0  0  0  0  0  0  0  0
   35.3790  -13.0340   19.9720 C   0  0  0  0  0  0  0  0  0  0  0  0
   35.8360  -14.0840   20.4060 O   0  0  0  0  0  0  0  0  0  0  0  0
   35.8180  -12.6380   18.5810 C   0  0  0  0  0  0  0  0  0  0  0  0
   35.8880  -11.3090   18.1090 C   0  0  0  0  0  0  0  0  0  0  0  0
   36.3820  -11.0090   16.8410 C   0  0  0  0  0  0  0  0  0  0  0  0
   36.8570  -12.0210   16.0050 C   0  0  0  0  0  0  0  0  0  0  0  0
   37.4900  -11.6720   14.7030 C   0  0  0  0  0  0  0  0  0  0  0  0
   38.7220  -12.2500   14.2570 C   0  0  0  0  0  0  0  0  0  0  0  0
   39.1940  -11.9100   12.9690 C   0  0  0  0  0  0  0  0  0  0  0  0
   38.5090  -11.0010   12.1530 C   0  0  0  0  0  0  0  0  0  0  0  0
   39.0360  -10.6950   10.9380 O   0  0  0  0  0  0  0  0  0  0  0  0
   38.5100   -9.7890   10.0400 C   0  0  0  0  0  0  0  0  0  0  0  0
   37.3200  -10.4210   12.6210 C   0  0  0  0  0  0  0  0  0  0  0  0
   36.8220  -10.7520   13.8770 C   0  0  0  0  0  0  0  0  0  0  0  0
   39.5640  -13.1480   15.1260 C   0  0  0  0  0  0  0  0  0  0  0  0
   40.3070  -14.2080   14.5740 C   0  0  0  0  0  0  0  0  0  0  0  0
   41.0450  -15.0650   15.3960 C   0  0  0  0  0  0  0  0  0  0  0  0
   41.0660  -14.8860   16.7930 C   0  0  0  0  0  0  0  0  0  0  0  0
   40.3680  -13.8090   17.3430 C   0  0  0  0  0  0  0  0  0  0  0  0
   39.6430  -12.9460   16.5230 C   0  0  0  0  0  0  0  0  0  0  0  0
   41.8260  -15.8490   17.6840 C   0  0  2  0  0  0  0  0  0  0  0  0
   43.2370  -15.8500   17.3150 N   0  0  0  0  0  0  0  0  0  0  0  0
   41.2280  -17.2590   17.5480 C   0  0  0  0  0  0  0  0  0  0  0  0
   36.7780  -13.3530   16.4480 C   0  0  0  0  0  0  0  0  0  0  0  0
   36.2730  -13.6540   17.7150 C   0  0  0  0  0  0  0  0  0  0  0  0
   35.6400  -10.4600   18.6960 H   0  0  0  0  0  0  0  0  0  0  0  0
   36.4530   -9.9710   16.5390 H   0  0  0  0  0  0  0  0  0  0  0  0
   40.1270  -12.3170   12.6010 H   0  0  0  0  0  0  0  0  0  0  0  0
   39.1640   -9.7380    9.1460 H   0  0  0  0  0  0  0  0  0  0  0  0
   38.4620   -8.7780   10.4990 H   0  0  0  0  0  0  0  0  0  0  0  0
   37.4950  -10.1080    9.7200 H   0  0  0  0  0  0  0  0  0  0  0  0
   36.7650   -9.7140   12.0190 H   0  0  0  0  0  0  0  0  0  0  0  0
   35.8890  -10.3030   14.1950 H   0  0  0  0  0  0  0  0  0  0  0  0
   40.2930  -14.4030   13.5100 H   0  0  0  0  0  0  0  0  0  0  0  0
   41.5870  -15.8850   14.9430 H   0  0  0  0  0  0  0  0  0  0  0  0
   40.3730  -13.6290   18.4100 H   0  0  0  0  0  0  0  0  0  0  0  0
   39.1410  -12.1190   17.0020 H   0  0  0  0  0  0  0  0  0  0  0  0
   41.6950  -15.6400   18.7490 H   0  0  0  0  0  0  0  0  0  0  0  0
   43.5910  -16.7080   16.8650 H   0  0  0  0  0  0  0  0  0  0  0  0
   40.1570  -17.2420   17.8510 H   0  0  0  0  0  0  0  0  0  0  0  0
   41.3020  -17.6410   16.5100 H   0  0  0  0  0  0  0  0  0  0  0  0
   41.7660  -17.9580   18.2240 H   0  0  0  0  0  0  0  0  0  0  0  0
   37.1290  -14.1630   15.8200 H   0  0  0  0  0  0  0  0  0  0  0  0
   36.2530  -14.6930   18.0210 H   0  0  0  0  0  0  0  0  0  0  0  0
   44.1170  -14.8020   17.3930 C   0  0  0  0  0  0  0  0  0  0  0  0
   45.2070  -14.9580   16.8530 O   0  0  0  0  0  0  0  0  0  0  0  0
   43.9020  -13.4720   18.0820 C   0  0  0  0  0  0  0  0  0  0  0  0
   43.0200  -13.2560   19.1630 C   0  0  0  0  0  0  0  0  0  0  0  0
   42.9260  -12.0180   19.7960 C   0  0  0  0  0  0  0  0  0  0  0  0
   43.7350  -10.9530   19.3980 C   0  0  0  0  0  0  0  0  0  0  0  0
   43.6990   -9.6640   20.1460 C   0  0  0  0  0  0  0  0  0  0  0  0
   44.8870   -8.9620   20.5160 C   0  0  0  0  0  0  0  0  0  0  0  0
   44.7680   -7.7130   21.1560 C   0  0  0  0  0  0  0  0  0  0  0  0
   43.5130   -7.1780   21.4760 C   0  0  0  0  0  0  0  0  0  0  0  0
   43.4640   -5.9930   22.1400 O   0  0  0  0  0  0  0  0  0  0  0  0
   42.3170   -5.3840   22.6080 C   0  0  0  0  0  0  0  0  0  0  0  0
   42.3530   -7.8940   21.1330 C   0  0  0  0  0  0  0  0  0  0  0  0
   42.4480   -9.1180   20.4770 C   0  0  0  0  0  0  0  0  0  0  0  0
   46.2500   -9.5640   20.3550 C   0  0  0  0  0  0  0  0  0  0  0  0
   47.3660   -8.8010   19.9670 C   0  0  0  0  0  0  0  0  0  0  0  0
   48.6230   -9.4080   19.8170 C   0  0  0  0  0  0  0  0  0  0  0  0
   48.7910  -10.7800   20.0830 C   0  0  0  0  0  0  0  0  0  0  0  0
   47.6870  -11.5290   20.5070 C   0  0  0  0  0  0  0  0  0  0  0  0
   46.4430  -10.9330   20.6360 C   0  0  0  0  0  0  0  0  0  0  0  0
   50.1330  -11.4700   19.9440 C   0  0  2  0  0  0  0  0  0  0  0  0
   51.1390  -10.8150   20.7670 N   0  0  0  0  0  0  0  0  0  0  0  0
   50.5650  -11.4990   18.4730 C   0  0  0  0  0  0  0  0  0  0  0  0
   44.6130  -11.1420   18.3170 C   0  0  0  0  0  0  0  0  0  0  0  0
   44.6960  -12.3770   17.6730 C   0  0  0  0  0  0  0  0  0  0  0  0
   42.4280  -14.0200   19.6020 H   0  0  0  0  0  0  0  0  0  0  0  0
   42.2600  -11.9120   20.6440 H   0  0  0  0  0  0  0  0  0  0  0  0
   45.6540   -7.1710   21.4630 H   0  0  0  0  0  0  0  0  0  0  0  0
   42.5890   -4.4460   23.1330 H   0  0  0  0  0  0  0  0  0  0  0  0
   41.7960   -6.0510   23.3300 H   0  0  0  0  0  0  0  0  0  0  0  0
   41.6390   -5.1360   21.7640 H   0  0  0  0  0  0  0  0  0  0  0  0
   41.3690   -7.5130   21.3680 H   0  0  0  0  0  0  0  0  0  0  0  0
   41.5340   -9.6330   20.2090 H   0  0  0  0  0  0  0  0  0  0  0  0
   47.2630   -7.7440   19.7520 H   0  0  0  0  0  0  0  0  0  0  0  0
   49.4670   -8.8080   19.5000 H   0  0  0  0  0  0  0  0  0  0  0  0
   47.7870  -12.5830   20.7340 H   0  0  0  0  0  0  0  0  0  0  0  0
   45.6260  -11.5510   20.9850 H   0  0  0  0  0  0  0  0  0  0  0  0
   50.0490  -12.5300   20.2720 H   0  0  0  0  0  0  0  0  0  0  0  0
   51.9890  -10.4350   20.3170 H   0  0  0  0  0  0  0  0  0  0  0  0
   49.8020  -12.0350   17.8670 H   0  0  0  0  0  0  0  0  0  0  0  0
   50.6890  -10.4720   18.0720 H   0  0  0  0  0  0  0  0  0  0  0  0
   51.5290  -12.0420   18.3750 H   0  0  0  0  0  0  0  0  0  0  0  0
   45.2460  -10.3330   17.9730 H   0  0  0  0  0  0  0  0  0  0  0  0
   45.3970  -12.4780   16.8530 H   0  0  0  0  0  0  0  0  0  0  0  0
   -2.4430   -6.7860   -0.4780 C   0  0  0  0  0  0  0  0  0  0  0  0
   -2.8960   -5.5240   -0.7880 O   0  0  0  0  0  0  0  0  0  0  0  0
   -2.1620   -7.3490   -1.3920 H   0  0  0  0  0  0  0  0  0  0  0  0
   -3.2350   -7.3340    0.0700 H   0  0  0  0  0  0  0  0  0  0  0  0
   -1.5570   -6.6930    0.1900 H   0  0  0  0  0  0  0  0  0  0  0  0
   53.4360   -9.0950   24.4200 C   0  0  0  0  0  0  0  0  0  0  0  0
   52.0560   -9.7100   24.1460 C   0  0  0  0  0  0  0  0  0  0  0  0
   51.8740  -10.9400   25.0620 C   0  0  0  0  0  0  0  0  0  0  0  0
   50.9700   -8.6570   24.4390 C   0  0  0  0  0  0  0  0  0  0  0  0
   52.0240  -10.0700   22.8030 O   0  0  0  0  0  0  0  0  0  0  0  0
   51.0220  -10.6830   22.1130 C   0  0  0  0  0  0  0  0  0  0  0  0
   50.0290  -11.1030   22.6930 O   0  0  0  0  0  0  0  0  0  0  0  0
   53.5260   -8.7750   25.4810 H   0  0  0  0  0  0  0  0  0  0  0  0
   54.2370   -9.8350   24.2060 H   0  0  0  0  0  0  0  0  0  0  0  0
   53.6020   -8.2090   23.7690 H   0  0  0  0  0  0  0  0  0  0  0  0
   52.6480  -11.7050   24.8400 H   0  0  0  0  0  0  0  0  0  0  0  0
   50.8770  -11.4070   24.9360 H   0  0  0  0  0  0  0  0  0  0  0  0
   51.9640  -10.6440   26.1290 H   0  0  0  0  0  0  0  0  0  0  0  0
   51.1110   -7.7690   23.7850 H   0  0  0  0  0  0  0  0  0  0  0  0
   49.9550   -9.0640   24.2540 H   0  0  0  0  0  0  0  0  0  0  0  0
   51.0210   -8.3260   25.4980 H   0  0  0  0  0  0  0  0  0  0  0  0
  1  2  2  0  0  0  0
  1  3  1  0  0  0  0
  1354  1  0  0  0  0
  3  4  2  0  0  0  0
  3 25  1  0  0  0  0
  4  5  1  0  0  0  0
  4 26  1  0  0  0  0
  5  6  2  0  0  0  0
  5 27  1  0  0  0  0
  6  7  1  0  0  0  0
  6 24  1  0  0  0  0
  7  8  2  0  0  0  0
  7 14  1  0  0  0  0
  8  9  1  0  0  0  0
  8 15  1  0  0  0  0
  9 10  2  0  0  0  0
  9 28  1  0  0  0  0
 10 11  1  0  0  0  0
 10 13  1  0  0  0  0
 11 12  1  0  0  0  0
 12 29  1  0  0  0  0
 12 30  1  0  0  0  0
 12 31  1  0  0  0  0
 13 14  2  0  0  0  0
 13 32  1  0  0  0  0
 14 33  1  0  0  0  0
 15 16  2  0  0  0  0
 15 20  1  0  0  0  0
 16 17  1  0  0  0  0
 16 34  1  0  0  0  0
 17 18  2  0  0  0  0
 17 35  1  0  0  0  0
 18 19  1  0  0  0  0
 18 21  1  0  0  0  0
 19 20  2  0  0  0  0
 19 36  1  0  0  0  0
 20 37  1  0  0  0  0
 21 22  1  0  0  0  0
 21 23  1  0  0  0  0
 21 38  1  1  0  0  0
 22 39  1  0  0  0  0
 22 45  1  0  0  0  0
 23 40  1  0  0  0  0
 23 41  1  0  0  0  0
 23 42  1  0  0  0  0
 24 25  2  0  0  0  0
 24 43  1  0  0  0  0
 25 44  1  0  0  0  0
 45 46  2  0  0  0  0
 45 47  1  0  0  0  0
 47 48  2  0  0  0  0
 47 69  1  0  0  0  0
 48 49  1  0  0  0  0
 48 70  1  0  0  0  0
 49 50  2  0  0  0  0
 49 71  1  0  0  0  0
 50 51  1  0  0  0  0
 50 68  1  0  0  0  0
 51 52  2  0  0  0  0
 51 58  1  0  0  0  0
 52 53  1  0  0  0  0
 52 59  1  0  0  0  0
 53 54  2  0  0  0  0
 53 72  1  0  0  0  0
 54 55  1  0  0  0  0
 54 57  1  0  0  0  0
 55 56  1  0  0  0  0
 56 73  1  0  0  0  0
 56 74  1  0  0  0  0
 56 75  1  0  0  0  0
 57 58  2  0  0  0  0
 57 76  1  0  0  0  0
 58 77  1  0  0  0  0
 59 60  2  0  0  0  0
 59 64  1  0  0  0  0
 60 61  1  0  0  0  0
 60 78  1  0  0  0  0
 61 62  2  0  0  0  0
 61 79  1  0  0  0  0
 62 63  1  0  0  0  0
 62 65  1  0  0  0  0
 63 64  2  0  0  0  0
 63 80  1  0  0  0  0
 64 81  1  0  0  0  0
 65 66  1  0  0  0  0
 65 67  1  0  0  0  0
 65 82  1  6  0  0  0
 66 83  1  0  0  0  0
 66 89  1  0  0  0  0
 67 84  1  0  0  0  0
 67 85  1  0  0  0  0
 67 86  1  0  0  0  0
 68 69  2  0  0  0  0
 68 87  1  0  0  0  0
 69 88  1  0  0  0  0
 89 90  2  0  0  0  0
 89 91  1  0  0  0  0
 91 92  2  0  0  0  0
 91113  1  0  0  0  0
 92 93  1  0  0  0  0
 92114  1  0  0  0  0
 93 94  2  0  0  0  0
 93115  1  0  0  0  0
 94 95  1  0  0  0  0
 94112  1  0  0  0  0
 95 96  2  0  0  0  0
 95102  1  0  0  0  0
 96 97  1  0  0  0  0
 96103  1  0  0  0  0
 97 98  2  0  0  0  0
 97116  1  0  0  0  0
 98 99  1  0  0  0  0
 98101  1  0  0  0  0
 99100  1  0  0  0  0
100117  1  0  0  0  0
100118  1  0  0  0  0
100119  1  0  0  0  0
101102  2  0  0  0  0
101120  1  0  0  0  0
102121  1  0  0  0  0
103104  2  0  0  0  0
103108  1  0  0  0  0
104105  1  0  0  0  0
104122  1  0  0  0  0
105106  2  0  0  0  0
105123  1  0  0  0  0
106107  1  0  0  0  0
106109  1  0  0  0  0
107108  2  0  0  0  0
107124  1  0  0  0  0
108125  1  0  0  0  0
109110  1  0  0  0  0
109111  1  0  0  0  0
109126  1  1  0  0  0
110127  1  0  0  0  0
110133  1  0  0  0  0
111128  1  0  0  0  0
111129  1  0  0  0  0
111130  1  0  0  0  0
112113  2  0  0  0  0
112131  1  0  0  0  0
113132  1  0  0  0  0
133134  2  0  0  0  0
133135  1  0  0  0  0
135136  2  0  0  0  0
135157  1  0  0  0  0
136137  1  0  0  0  0
136158  1  0  0  0  0
137138  2  0  0  0  0
137159  1  0  0  0  0
138139  1  0  0  0  0
138156  1  0  0  0  0
139140  2  0  0  0  0
139146  1  0  0  0  0
140141  1  0  0  0  0
140147  1  0  0  0  0
141142  2  0  0  0  0
141160  1  0  0  0  0
142143  1  0  0  0  0
142145  1  0  0  0  0
143144  1  0  0  0  0
144161  1  0  0  0  0
144162  1  0  0  0  0
144163  1  0  0  0  0
145146  2  0  0  0  0
145164  1  0  0  0  0
146165  1  0  0  0  0
147148  2  0  0  0  0
147152  1  0  0  0  0
148149  1  0  0  0  0
148166  1  0  0  0  0
149150  2  0  0  0  0
149167  1  0  0  0  0
150151  1  0  0  0  0
150153  1  0  0  0  0
151152  2  0  0  0  0
151168  1  0  0  0  0
152169  1  0  0  0  0
153154  1  0  0  0  0
153155  1  0  0  0  0
153170  1  1  0  0  0
154171  1  0  0  0  0
154177  1  0  0  0  0
155172  1  0  0  0  0
155173  1  0  0  0  0
155174  1  0  0  0  0
156157  2  0  0  0  0
156175  1  0  0  0  0
157176  1  0  0  0  0
177178  2  0  0  0  0
177179  1  0  0  0  0
179180  2  0  0  0  0
179201  1  0  0  0  0
180181  1  0  0  0  0
180202  1  0  0  0  0
181182  2  0  0  0  0
181203  1  0  0  0  0
182183  1  0  0  0  0
182200  1  0  0  0  0
183184  2  0  0  0  0
183190  1  0  0  0  0
184185  1  0  0  0  0
184191  1  0  0  0  0
185186  2  0  0  0  0
185204  1  0  0  0  0
186187  1  0  0  0  0
186189  1  0  0  0  0
187188  1  0  0  0  0
188205  1  0  0  0  0
188206  1  0  0  0  0
188207  1  0  0  0  0
189190  2  0  0  0  0
189208  1  0  0  0  0
190209  1  0  0  0  0
191192  2  0  0  0  0
191196  1  0  0  0  0
192193  1  0  0  0  0
192210  1  0  0  0  0
193194  2  0  0  0  0
193211  1  0  0  0  0
194195  1  0  0  0  0
194197  1  0  0  0  0
195196  2  0  0  0  0
195212  1  0  0  0  0
196213  1  0  0  0  0
197198  1  0  0  0  0
197199  1  0  0  0  0
197214  1  6  0  0  0
198215  1  0  0  0  0
198221  1  0  0  0  0
199216  1  0  0  0  0
199217  1  0  0  0  0
199218  1  0  0  0  0
200201  2  0  0  0  0
200219  1  0  0  0  0
201220  1  0  0  0  0
221222  2  0  0  0  0
221223  1  0  0  0  0
223224  2  0  0  0  0
223245  1  0  0  0  0
224225  1  0  0  0  0
224246  1  0  0  0  0
225226  2  0  0  0  0
225247  1  0  0  0  0
226227  1  0  0  0  0
226244  1  0  0  0  0
227228  2  0  0  0  0
227234  1  0  0  0  0
228229  1  0  0  0  0
228235  1  0  0  0  0
229230  2  0  0  0  0
229248  1  0  0  0  0
230231  1  0  0  0  0
230233  1  0  0  0  0
231232  1  0  0  0  0
232249  1  0  0  0  0
232250  1  0  0  0  0
232251  1  0  0  0  0
233234  2  0  0  0  0
233252  1  0  0  0  0
234253  1  0  0  0  0
235236  2  0  0  0  0
235240  1  0  0  0  0
236237  1  0  0  0  0
236254  1  0  0  0  0
237238  2  0  0  0  0
237255  1  0  0  0  0
238239  1  0  0  0  0
238241  1  0  0  0  0
239240  2  0  0  0  0
239256  1  0  0  0  0
240257  1  0  0  0  0
241242  1  0  0  0  0
241243  1  0  0  0  0
241258  1  6  0  0  0
242259  1  0  0  0  0
242265  1  0  0  0  0
243260  1  0  0  0  0
243261  1  0  0  0  0
243262  1  0  0  0  0
244245  2  0  0  0  0
244263  1  0  0  0  0
245264  1  0  0  0  0
265266  2  0  0  0  0
265267  1  0  0  0  0
267268  2  0  0  0  0
267289  1  0  0  0  0
268269  1  0  0  0  0
268290  1  0  0  0  0
269270  2  0  0  0  0
269291  1  0  0  0  0
270271  1  0  0  0  0
270288  1  0  0  0  0
271272  2  0  0  0  0
271278  1  0  0  0  0
272273  1  0  0  0  0
272279  1  0  0  0  0
273274  2  0  0  0  0
273292  1  0  0  0  0
274275  1  0  0  0  0
274277  1  0  0  0  0
275276  1  0  0  0  0
276293  1  0  0  0  0
276294  1  0  0  0  0
276295  1  0  0  0  0
277278  2  0  0  0  0
277296  1  0  0  0  0
278297  1  0  0  0  0
279280  2  0  0  0  0
279284  1  0  0  0  0
280281  1  0  0  0  0
280298  1  0  0  0  0
281282  2  0  0  0  0
281299  1  0  0  0  0
282283  1  0  0  0  0
282285  1  0  0  0  0
283284  2  0  0  0  0
283300  1  0  0  0  0
284301  1  0  0  0  0
285286  1  0  0  0  0
285287  1  0  0  0  0
285302  1  1  0  0  0
286303  1  0  0  0  0
286309  1  0  0  0  0
287304  1  0  0  0  0
287305  1  0  0  0  0
287306  1  0  0  0  0
288289  2  0  0  0  0
288307  1  0  0  0  0
289308  1  0  0  0  0
309310  2  0  0  0  0
309311  1  0  0  0  0
311312  2  0  0  0  0
311333  1  0  0  0  0
312313  1  0  0  0  0
312334  1  0  0  0  0
313314  2  0  0  0  0
313335  1  0  0  0  0
314315  1  0  0  0  0
314332  1  0  0  0  0
315316  2  0  0  0  0
315322  1  0  0  0  0
316317  1  0  0  0  0
316323  1  0  0  0  0
317318  2  0  0  0  0
317336  1  0  0  0  0
318319  1  0  0  0  0
318321  1  0  0  0  0
319320  1  0  0  0  0
320337  1  0  0  0  0
320338  1  0  0  0  0
320339  1  0  0  0  0
321322  2  0  0  0  0
321340  1  0  0  0  0
322341  1  0  0  0  0
323324  2  0  0  0  0
323328  1  0  0  0  0
324325  1  0  0  0  0
324342  1  0  0  0  0
325326  2  0  0  0  0
325343  1  0  0  0  0
326327  1  0  0  0  0
326329  1  0  0  0  0
327328  2  0  0  0  0
327344  1  0  0  0  0
328345  1  0  0  0  0
329330  1  0  0  0  0
329331  1  0  0  0  0
329346  1  1  0  0  0
330347  1  0  0  0  0
330363  1  0  0  0  0
331348  1  0  0  0  0
331349  1  0  0  0  0
331350  1  0  0  0  0
332333  2  0  0  0  0
332351  1  0  0  0  0
333352  1  0  0  0  0
353354  1  0  0  0  0
353355  1  0  0  0  0
353356  1  0  0  0  0
353357  1  0  0  0  0
358359  1  0  0  0  0
358365  1  0  0  0  0
358366  1  0  0  0  0
358367  1  0  0  0  0
359360  1  0  0  0  0
359361  1  0  0  0  0
359362  1  0  0  0  0
360368  1  0  0  0  0
360369  1  0  0  0  0
360370  1  0  0  0  0
361371  1  0  0  0  0
361372  1  0  0  0  0
361373  1  0  0  0  0
362363  1  0  0  0  0
363364  2  0  0  0  0
M  END
$$$$
