mom_octamer_mbuild.pdb
 OpenBabel10062217503D

373396  0  0  1  0  0  0  0  0999 V2000
   -2.6430    5.5430    0.8940 C   0  0  0  0  0  0  0  0  0  0  0  0
   -1.5590    4.6680    0.5990 O   0  0  0  0  0  0  0  0  0  0  0  0
   -1.6780    3.2780    0.4590 C   0  0  0  0  0  0  0  0  0  0  0  0
   -2.9060    2.6090    0.5990 C   0  0  0  0  0  0  0  0  0  0  0  0
   -2.9730    1.2220    0.4580 C   0  0  0  0  0  0  0  0  0  0  0  0
   -1.8200    0.4730    0.1750 C   0  0  0  0  0  0  0  0  0  0  0  0
   -1.9310   -1.0040    0.1020 C   0  0  0  0  0  0  0  0  0  0  0  0
   -2.8550   -1.6010   -0.7730 C   0  0  0  0  0  0  0  0  0  0  0  0
   -2.9600   -3.0010   -0.8520 C   0  0  0  0  0  0  0  0  0  0  0  0
   -3.9180   -3.6420   -1.7730 C   0  0  0  0  0  0  0  0  0  0  0  0
   -4.6700   -2.9530   -2.5130 O   0  0  0  0  0  0  0  0  0  0  0  0
   -2.1380   -3.8000   -0.0440 C   0  0  0  0  0  0  0  0  0  0  0  0
   -1.2260   -3.2100    0.8350 C   0  0  0  0  0  0  0  0  0  0  0  0
   -1.1250   -1.8200    0.9130 C   0  0  0  0  0  0  0  0  0  0  0  0
   -0.5810    1.1440    0.0090 C   0  0  0  0  0  0  0  0  0  0  0  0
    0.6580    0.4230   -0.3680 C   0  0  0  0  0  0  0  0  0  0  0  0
    1.8130    0.5440    0.4220 C   0  0  0  0  0  0  0  0  0  0  0  0
    2.9920   -0.1440    0.0820 C   0  0  0  0  0  0  0  0  0  0  0  0
    4.2210   -0.0240    0.9590 C   0  0  1  0  0  0  0  0  0  0  0  0
    4.5540   -1.3630    1.6300 C   0  0  0  0  0  0  0  0  0  0  0  0
    5.3560    0.4790    0.1790 N   0  0  0  0  0  0  0  0  0  0  0  0
    2.9990   -0.9570   -1.0670 C   0  0  0  0  0  0  0  0  0  0  0  0
    1.8560   -1.0700   -1.8610 C   0  0  0  0  0  0  0  0  0  0  0  0
    0.6920   -0.3810   -1.5180 C   0  0  0  0  0  0  0  0  0  0  0  0
   -0.5280    2.5390    0.1660 C   0  0  0  0  0  0  0  0  0  0  0  0
   -3.0910    5.2770    1.8750 H   0  0  0  0  0  0  0  0  0  0  0  0
   -3.4100    5.4840    0.0940 H   0  0  0  0  0  0  0  0  0  0  0  0
   -2.2640    6.5840    0.9470 H   0  0  0  0  0  0  0  0  0  0  0  0
   -3.8140    3.1510    0.8250 H   0  0  0  0  0  0  0  0  0  0  0  0
   -3.9270    0.7280    0.5920 H   0  0  0  0  0  0  0  0  0  0  0  0
   -3.4780   -0.9730   -1.3980 H   0  0  0  0  0  0  0  0  0  0  0  0
   -2.2030   -4.8800   -0.0910 H   0  0  0  0  0  0  0  0  0  0  0  0
   -0.5990   -3.8330    1.4590 H   0  0  0  0  0  0  0  0  0  0  0  0
   -0.4200   -1.3790    1.6070 H   0  0  0  0  0  0  0  0  0  0  0  0
    1.7860    1.1620    1.3120 H   0  0  0  0  0  0  0  0  0  0  0  0
    4.0200    0.7080    1.7730 H   0  0  0  0  0  0  0  0  0  0  0  0
    5.4210   -1.2390    2.3130 H   0  0  0  0  0  0  0  0  0  0  0  0
    3.6860   -1.7150    2.2280 H   0  0  0  0  0  0  0  0  0  0  0  0
    4.8070   -2.1380    0.8750 H   0  0  0  0  0  0  0  0  0  0  0  0
    6.1320    0.7170    0.8390 H   0  0  0  0  0  0  0  0  0  0  0  0
    3.8870   -1.5070   -1.3490 H   0  0  0  0  0  0  0  0  0  0  0  0
    1.8720   -1.6940   -2.7460 H   0  0  0  0  0  0  0  0  0  0  0  0
   -0.1830   -0.4730   -2.1490 H   0  0  0  0  0  0  0  0  0  0  0  0
    0.4130    3.0620    0.0400 H   0  0  0  0  0  0  0  0  0  0  0  0
   11.1720   -6.2170   -6.5100 C   0  0  0  0  0  0  0  0  0  0  0  0
   11.3560   -6.1730   -5.0990 O   0  0  0  0  0  0  0  0  0  0  0  0
   10.7970   -5.2000   -4.2570 C   0  0  0  0  0  0  0  0  0  0  0  0
    9.9850   -4.1610   -4.7420 C   0  0  0  0  0  0  0  0  0  0  0  0
    9.4560   -3.2120   -3.8660 C   0  0  0  0  0  0  0  0  0  0  0  0
    9.7250   -3.2780   -2.4890 C   0  0  0  0  0  0  0  0  0  0  0  0
    9.1970   -2.2070   -1.6090 C   0  0  0  0  0  0  0  0  0  0  0  0
    7.8220   -1.9180   -1.5960 C   0  0  0  0  0  0  0  0  0  0  0  0
    7.3130   -0.9090   -0.7580 C   0  0  0  0  0  0  0  0  0  0  0  0
    5.8720   -0.6010   -0.7260 C   0  0  0  0  0  0  0  0  0  0  0  0
    5.0550   -1.2310   -1.4490 O   0  0  0  0  0  0  0  0  0  0  0  0
    8.1930   -0.1880    0.0620 C   0  0  0  0  0  0  0  0  0  0  0  0
    9.5620   -0.4650    0.0440 C   0  0  0  0  0  0  0  0  0  0  0  0
   10.0640   -1.4660   -0.7900 C   0  0  0  0  0  0  0  0  0  0  0  0
   10.5240   -4.3380   -1.9900 C   0  0  0  0  0  0  0  0  0  0  0  0
   10.7820   -4.5110   -0.5400 C   0  0  0  0  0  0  0  0  0  0  0  0
   12.1000   -4.5950   -0.0620 C   0  0  0  0  0  0  0  0  0  0  0  0
   12.3570   -4.7470    1.3120 C   0  0  0  0  0  0  0  0  0  0  0  0
   13.7860   -4.8100    1.8140 C   0  0  1  0  0  0  0  0  0  0  0  0
   14.1220   -3.5860    2.6770 C   0  0  0  0  0  0  0  0  0  0  0  0
   14.0140   -6.0580    2.5470 N   0  0  0  0  0  0  0  0  0  0  0  0
   11.2720   -4.8180    2.2050 C   0  0  0  0  0  0  0  0  0  0  0  0
    9.9610   -4.7480    1.7320 C   0  0  0  0  0  0  0  0  0  0  0  0
    9.7140   -4.6000    0.3660 C   0  0  0  0  0  0  0  0  0  0  0  0
   11.0590   -5.2780   -2.8860 C   0  0  0  0  0  0  0  0  0  0  0  0
   11.5700   -5.2910   -6.9760 H   0  0  0  0  0  0  0  0  0  0  0  0
   10.0950   -6.3350   -6.7520 H   0  0  0  0  0  0  0  0  0  0  0  0
   11.7250   -7.0870   -6.9210 H   0  0  0  0  0  0  0  0  0  0  0  0
    9.7620   -4.0720   -5.7970 H   0  0  0  0  0  0  0  0  0  0  0  0
    8.8510   -2.4080   -4.2670 H   0  0  0  0  0  0  0  0  0  0  0  0
    7.1520   -2.4890   -2.2270 H   0  0  0  0  0  0  0  0  0  0  0  0
    7.8220    0.5920    0.7150 H   0  0  0  0  0  0  0  0  0  0  0  0
   10.2360    0.0990    0.6750 H   0  0  0  0  0  0  0  0  0  0  0  0
   11.1300   -1.6610   -0.8000 H   0  0  0  0  0  0  0  0  0  0  0  0
   12.9240   -4.5220   -0.7620 H   0  0  0  0  0  0  0  0  0  0  0  0
   14.4810   -4.7960    0.9440 H   0  0  0  0  0  0  0  0  0  0  0  0
   15.1880   -3.6210    2.9850 H   0  0  0  0  0  0  0  0  0  0  0  0
   13.9570   -2.6540    2.0950 H   0  0  0  0  0  0  0  0  0  0  0  0
   13.4900   -3.5550    3.5900 H   0  0  0  0  0  0  0  0  0  0  0  0
   15.0400   -6.1540    2.7270 H   0  0  0  0  0  0  0  0  0  0  0  0
   11.4390   -4.9250    3.2690 H   0  0  0  0  0  0  0  0  0  0  0  0
    9.1320   -4.8080    2.4260 H   0  0  0  0  0  0  0  0  0  0  0  0
    8.6900   -4.5550    0.0150 H   0  0  0  0  0  0  0  0  0  0  0  0
   11.6690   -6.0930   -2.5160 H   0  0  0  0  0  0  0  0  0  0  0  0
   10.6020   -7.2870   13.0470 C   0  0  0  0  0  0  0  0  0  0  0  0
   11.7880   -6.5840   12.6890 O   0  0  0  0  0  0  0  0  0  0  0  0
   12.3560   -6.5910   11.4070 C   0  0  0  0  0  0  0  0  0  0  0  0
   11.7920   -7.3050   10.3370 C   0  0  0  0  0  0  0  0  0  0  0  0
   12.3980   -7.2860    9.0800 C   0  0  0  0  0  0  0  0  0  0  0  0
   13.5780   -6.5560    8.8620 C   0  0  0  0  0  0  0  0  0  0  0  0
   14.2200   -6.6230    7.5270 C   0  0  0  0  0  0  0  0  0  0  0  0
   13.4890   -6.2930    6.3730 C   0  0  0  0  0  0  0  0  0  0  0  0
   14.0940   -6.3470    5.1050 C   0  0  0  0  0  0  0  0  0  0  0  0
   13.3430   -5.9940    3.8870 C   0  0  0  0  0  0  0  0  0  0  0  0
   12.1370   -5.6350    3.9470 O   0  0  0  0  0  0  0  0  0  0  0  0
   15.4370   -6.7410    5.0000 C   0  0  0  0  0  0  0  0  0  0  0  0
   16.1630   -7.0810    6.1440 C   0  0  0  0  0  0  0  0  0  0  0  0
   15.5590   -7.0270    7.4010 C   0  0  0  0  0  0  0  0  0  0  0  0
   14.1390   -5.8130    9.9320 C   0  0  0  0  0  0  0  0  0  0  0  0
   15.3370   -4.9590    9.7510 C   0  0  0  0  0  0  0  0  0  0  0  0
   16.4610   -5.1360   10.5740 C   0  0  0  0  0  0  0  0  0  0  0  0
   17.6080   -4.3400   10.4050 C   0  0  0  0  0  0  0  0  0  0  0  0
   18.8220   -4.5610   11.2840 C   0  0  1  0  0  0  0  0  0  0  0  0
   20.0100   -5.0840   10.4650 C   0  0  0  0  0  0  0  0  0  0  0  0
   19.1670   -3.3270   11.9960 N   0  0  0  0  0  0  0  0  0  0  0  0
   17.6140   -3.3580    9.3960 C   0  0  0  0  0  0  0  0  0  0  0  0
   16.4940   -3.1720    8.5850 C   0  0  0  0  0  0  0  0  0  0  0  0
   15.3580   -3.9630    8.7620 C   0  0  0  0  0  0  0  0  0  0  0  0
   13.5240   -5.8520   11.1950 C   0  0  0  0  0  0  0  0  0  0  0  0
   10.7440   -8.3780   12.8920 H   0  0  0  0  0  0  0  0  0  0  0  0
    9.7450   -6.9230   12.4430 H   0  0  0  0  0  0  0  0  0  0  0  0
   10.3840   -7.1060   14.1200 H   0  0  0  0  0  0  0  0  0  0  0  0
   10.8890   -7.8850   10.4670 H   0  0  0  0  0  0  0  0  0  0  0  0
   11.9560   -7.8630    8.2760 H   0  0  0  0  0  0  0  0  0  0  0  0
   12.4560   -5.9810    6.4690 H   0  0  0  0  0  0  0  0  0  0  0  0
   15.9210   -6.7890    4.0330 H   0  0  0  0  0  0  0  0  0  0  0  0
   17.1970   -7.3890    6.0550 H   0  0  0  0  0  0  0  0  0  0  0  0
   16.1340   -7.3040    8.2760 H   0  0  0  0  0  0  0  0  0  0  0  0
   16.4460   -5.9070   11.3350 H   0  0  0  0  0  0  0  0  0  0  0  0
   18.5850   -5.3370   12.0470 H   0  0  0  0  0  0  0  0  0  0  0  0
   20.8690   -5.2950   11.1360 H   0  0  0  0  0  0  0  0  0  0  0  0
   19.7300   -6.0270    9.9480 H   0  0  0  0  0  0  0  0  0  0  0  0
   20.3300   -4.3400    9.7040 H   0  0  0  0  0  0  0  0  0  0  0  0
   19.8890   -3.5530   12.7190 H   0  0  0  0  0  0  0  0  0  0  0  0
   18.4860   -2.7370    9.2350 H   0  0  0  0  0  0  0  0  0  0  0  0
   16.5060   -2.4110    7.8150 H   0  0  0  0  0  0  0  0  0  0  0  0
   14.4950   -3.8000    8.1280 H   0  0  0  0  0  0  0  0  0  0  0  0
   13.9430   -5.2870   12.0190 H   0  0  0  0  0  0  0  0  0  0  0  0
   24.7030    4.8820    6.9600 C   0  0  0  0  0  0  0  0  0  0  0  0
   25.3340    3.7100    7.4650 O   0  0  0  0  0  0  0  0  0  0  0  0
   24.7060    2.7620    8.2850 C   0  0  0  0  0  0  0  0  0  0  0  0
   23.3660    2.8860    8.6890 C   0  0  0  0  0  0  0  0  0  0  0  0
   22.7860    1.9200    9.5120 C   0  0  0  0  0  0  0  0  0  0  0  0
   23.5270    0.8100    9.9500 C   0  0  0  0  0  0  0  0  0  0  0  0
   22.8870   -0.1530   10.8780 C   0  0  0  0  0  0  0  0  0  0  0  0
   21.6720   -0.7680   10.5310 C   0  0  0  0  0  0  0  0  0  0  0  0
   21.0630   -1.6880   11.4030 C   0  0  0  0  0  0  0  0  0  0  0  0
   19.7940   -2.3490   11.0480 C   0  0  0  0  0  0  0  0  0  0  0  0
   19.2180   -2.1070    9.9540 O   0  0  0  0  0  0  0  0  0  0  0  0
   21.6770   -1.9820   12.6300 C   0  0  0  0  0  0  0  0  0  0  0  0
   22.8780   -1.3640   12.9830 C   0  0  0  0  0  0  0  0  0  0  0  0
   23.4800   -0.4510   12.1160 C   0  0  0  0  0  0  0  0  0  0  0  0
   24.8730    0.6660    9.5260 C   0  0  0  0  0  0  0  0  0  0  0  0
   25.6880   -0.5190    9.8860 C   0  0  0  0  0  0  0  0  0  0  0  0
   26.9300   -0.3560   10.5200 C   0  0  0  0  0  0  0  0  0  0  0  0
   27.7070   -1.4730   10.8770 C   0  0  0  0  0  0  0  0  0  0  0  0
   29.0330   -1.2800   11.5840 C   0  0  1  0  0  0  0  0  0  0  0  0
   28.9810   -1.8310   13.0160 C   0  0  0  0  0  0  0  0  0  0  0  0
   30.1150   -1.9000   10.8140 N   0  0  0  0  0  0  0  0  0  0  0  0
   27.2210   -2.7610   10.5880 C   0  0  0  0  0  0  0  0  0  0  0  0
   25.9920   -2.9270    9.9470 C   0  0  0  0  0  0  0  0  0  0  0  0
   25.2290   -1.8130    9.5930 C   0  0  0  0  0  0  0  0  0  0  0  0
   25.4470    1.6540    8.7080 C   0  0  0  0  0  0  0  0  0  0  0  0
   24.3700    5.5280    7.8000 H   0  0  0  0  0  0  0  0  0  0  0  0
   23.8360    4.6060    6.3240 H   0  0  0  0  0  0  0  0  0  0  0  0
   25.4300    5.4490    6.3430 H   0  0  0  0  0  0  0  0  0  0  0  0
   22.7650    3.7300    8.3800 H   0  0  0  0  0  0  0  0  0  0  0  0
   21.7580    2.0490    9.8280 H   0  0  0  0  0  0  0  0  0  0  0  0
   21.2130   -0.5390    9.5760 H   0  0  0  0  0  0  0  0  0  0  0  0
   21.2240   -2.6880   13.3150 H   0  0  0  0  0  0  0  0  0  0  0  0
   23.3440   -1.5930   13.9340 H   0  0  0  0  0  0  0  0  0  0  0  0
   24.4060    0.0270   12.4100 H   0  0  0  0  0  0  0  0  0  0  0  0
   27.2820    0.6430   10.7500 H   0  0  0  0  0  0  0  0  0  0  0  0
   29.2530   -0.1910   11.6610 H   0  0  0  0  0  0  0  0  0  0  0  0
   29.9420   -1.6270   13.5350 H   0  0  0  0  0  0  0  0  0  0  0  0
   28.1650   -1.3350   13.5840 H   0  0  0  0  0  0  0  0  0  0  0  0
   28.8040   -2.9270   13.0170 H   0  0  0  0  0  0  0  0  0  0  0  0
   31.0290   -1.6030   11.2280 H   0  0  0  0  0  0  0  0  0  0  0  0
   27.7900   -3.6410   10.8600 H   0  0  0  0  0  0  0  0  0  0  0  0
   25.6280   -3.9220    9.7240 H   0  0  0  0  0  0  0  0  0  0  0  0
   24.2810   -1.9590    9.0890 H   0  0  0  0  0  0  0  0  0  0  0  0
   26.4740    1.5530    8.3760 H   0  0  0  0  0  0  0  0  0  0  0  0
   31.8880  -12.8610   11.1460 C   0  0  0  0  0  0  0  0  0  0  0  0
   32.3220  -11.9690   12.1670 O   0  0  0  0  0  0  0  0  0  0  0  0
   32.3030  -10.5710   12.0580 C   0  0  0  0  0  0  0  0  0  0  0  0
   31.8420   -9.9110   10.9070 C   0  0  0  0  0  0  0  0  0  0  0  0
   31.8500   -8.5170   10.8440 C   0  0  0  0  0  0  0  0  0  0  0  0
   32.3160   -7.7510   11.9240 C   0  0  0  0  0  0  0  0  0  0  0  0
   32.3680   -6.2760   11.7820 C   0  0  0  0  0  0  0  0  0  0  0  0
   31.2120   -5.5590   11.4300 C   0  0  0  0  0  0  0  0  0  0  0  0
   31.2520   -4.1590   11.3010 C   0  0  0  0  0  0  0  0  0  0  0  0
   30.0440   -3.3920   10.9430 C   0  0  0  0  0  0  0  0  0  0  0  0
   28.9430   -3.9690   10.7410 O   0  0  0  0  0  0  0  0  0  0  0  0
   32.4610   -3.4830   11.5190 C   0  0  0  0  0  0  0  0  0  0  0  0
   33.6160   -4.1930   11.8580 C   0  0  0  0  0  0  0  0  0  0  0  0
   33.5730   -5.5830   11.9840 C   0  0  0  0  0  0  0  0  0  0  0  0
   32.7610   -8.4100   13.0990 C   0  0  0  0  0  0  0  0  0  0  0  0
   33.1920   -7.6620   14.3040 C   0  0  0  0  0  0  0  0  0  0  0  0
   34.4570   -7.9000   14.8670 C   0  0  0  0  0  0  0  0  0  0  0  0
   34.8820   -7.1880   16.0030 C   0  0  0  0  0  0  0  0  0  0  0  0
   36.2590   -7.4370   16.5840 C   0  0  1  0  0  0  0  0  0  0  0  0
   37.1550   -6.2000   16.4290 C   0  0  0  0  0  0  0  0  0  0  0  0
   36.1540   -7.8480   17.9870 N   0  0  0  0  0  0  0  0  0  0  0  0
   34.0190   -6.2320   16.5720 C   0  0  0  0  0  0  0  0  0  0  0  0
   32.7560   -6.0030   16.0210 C   0  0  0  0  0  0  0  0  0  0  0  0
   32.3410   -6.7160   14.8960 C   0  0  0  0  0  0  0  0  0  0  0  0
   32.7590   -9.8150   13.1430 C   0  0  0  0  0  0  0  0  0  0  0  0
   32.5000  -12.7200   10.2300 H   0  0  0  0  0  0  0  0  0  0  0  0
   30.8140  -12.6890   10.9190 H   0  0  0  0  0  0  0  0  0  0  0  0
   32.0130  -13.9050   11.4990 H   0  0  0  0  0  0  0  0  0  0  0  0
   31.4820  -10.4660   10.0520 H   0  0  0  0  0  0  0  0  0  0  0  0
   31.5090   -8.0320    9.9360 H   0  0  0  0  0  0  0  0  0  0  0  0
   30.2820   -6.0920   11.2740 H   0  0  0  0  0  0  0  0  0  0  0  0
   32.5130   -2.4050   11.4250 H   0  0  0  0  0  0  0  0  0  0  0  0
   34.5460   -3.6650   12.0200 H   0  0  0  0  0  0  0  0  0  0  0  0
   34.4790   -6.1190   12.2370 H   0  0  0  0  0  0  0  0  0  0  0  0
   35.1150   -8.6270   14.4080 H   0  0  0  0  0  0  0  0  0  0  0  0
   36.7480   -8.2660   16.0240 H   0  0  0  0  0  0  0  0  0  0  0  0
   38.1760   -6.4230   16.8070 H   0  0  0  0  0  0  0  0  0  0  0  0
   37.2330   -5.9190   15.3570 H   0  0  0  0  0  0  0  0  0  0  0  0
   36.7490   -5.3380   16.9980 H   0  0  0  0  0  0  0  0  0  0  0  0
   37.0930   -8.1800   18.3060 H   0  0  0  0  0  0  0  0  0  0  0  0
   34.3210   -5.6610   17.4400 H   0  0  0  0  0  0  0  0  0  0  0  0
   32.0970   -5.2700   16.4680 H   0  0  0  0  0  0  0  0  0  0  0  0
   31.3550   -6.5320   14.4860 H   0  0  0  0  0  0  0  0  0  0  0  0
   33.0940  -10.3290   14.0360 H   0  0  0  0  0  0  0  0  0  0  0  0
   34.4440   -0.4120   26.0610 C   0  0  0  0  0  0  0  0  0  0  0  0
   35.7180   -0.6420   25.4690 O   0  0  0  0  0  0  0  0  0  0  0  0
   36.0100   -1.7090   24.6070 C   0  0  0  0  0  0  0  0  0  0  0  0
   35.0490   -2.6660   24.2400 C   0  0  0  0  0  0  0  0  0  0  0  0
   35.3900   -3.7140   23.3830 C   0  0  0  0  0  0  0  0  0  0  0  0
   36.6940   -3.8310   22.8750 C   0  0  0  0  0  0  0  0  0  0  0  0
   37.0230   -5.0000   22.0240 C   0  0  0  0  0  0  0  0  0  0  0  0
   36.2660   -5.2720   20.8720 C   0  0  0  0  0  0  0  0  0  0  0  0
   36.5780   -6.3740   20.0570 C   0  0  0  0  0  0  0  0  0  0  0  0
   35.7980   -6.6660   18.8390 C   0  0  0  0  0  0  0  0  0  0  0  0
   34.8300   -5.9370   18.4960 O   0  0  0  0  0  0  0  0  0  0  0  0
   37.6500   -7.2070   20.4070 C   0  0  0  0  0  0  0  0  0  0  0  0
   38.3990   -6.9470   21.5580 C   0  0  0  0  0  0  0  0  0  0  0  0
   38.0860   -5.8520   22.3660 C   0  0  0  0  0  0  0  0  0  0  0  0
   37.6620   -2.8550   23.2220 C   0  0  0  0  0  0  0  0  0  0  0  0
   39.0340   -2.8750   22.6600 C   0  0  0  0  0  0  0  0  0  0  0  0
   40.1480   -2.8710   23.5150 C   0  0  0  0  0  0  0  0  0  0  0  0
   41.4540   -2.9020   22.9930 C   0  0  0  0  0  0  0  0  0  0  0  0
   42.6450   -2.9230   23.9300 C   0  0  1  0  0  0  0  0  0  0  0  0
   43.4040   -4.2530   23.8270 C   0  0  0  0  0  0  0  0  0  0  0  0
   43.5260   -1.7830   23.6600 N   0  0  0  0  0  0  0  0  0  0  0  0
   41.6300   -2.9340   21.5970 C   0  0  0  0  0  0  0  0  0  0  0  0
   40.5240   -2.9250   20.7440 C   0  0  0  0  0  0  0  0  0  0  0  0
   39.2320   -2.8920   21.2700 C   0  0  0  0  0  0  0  0  0  0  0  0
   37.3070   -1.8130   24.0950 C   0  0  0  0  0  0  0  0  0  0  0  0
   34.1580   -1.2750   26.6990 H   0  0  0  0  0  0  0  0  0  0  0  0
   33.6790   -0.2510   25.2720 H   0  0  0  0  0  0  0  0  0  0  0  0
   34.4970    0.4970   26.6950 H   0  0  0  0  0  0  0  0  0  0  0  0
   34.0370   -2.6130   24.6170 H   0  0  0  0  0  0  0  0  0  0  0  0
   34.6370   -4.4510   23.1320 H   0  0  0  0  0  0  0  0  0  0  0  0
   35.4450   -4.6150   20.6070 H   0  0  0  0  0  0  0  0  0  0  0  0
   37.9080   -8.0610   19.7920 H   0  0  0  0  0  0  0  0  0  0  0  0
   39.2220   -7.5970   21.8250 H   0  0  0  0  0  0  0  0  0  0  0  0
   38.6700   -5.6710   23.2600 H   0  0  0  0  0  0  0  0  0  0  0  0
   39.9940   -2.8620   24.5880 H   0  0  0  0  0  0  0  0  0  0  0  0
   42.2860   -2.8320   24.9800 H   0  0  0  0  0  0  0  0  0  0  0  0
   44.2360   -4.2710   24.5630 H   0  0  0  0  0  0  0  0  0  0  0  0
   42.7200   -5.0990   24.0520 H   0  0  0  0  0  0  0  0  0  0  0  0
   43.8280   -4.3950   22.8100 H   0  0  0  0  0  0  0  0  0  0  0  0
   44.2360   -1.7250   24.4260 H   0  0  0  0  0  0  0  0  0  0  0  0
   42.6220   -2.9680   21.1660 H   0  0  0  0  0  0  0  0  0  0  0  0
   40.6700   -2.9460   19.6720 H   0  0  0  0  0  0  0  0  0  0  0  0
   38.3860   -2.8780   20.5940 H   0  0  0  0  0  0  0  0  0  0  0  0
   38.0390   -1.0610   24.3660 H   0  0  0  0  0  0  0  0  0  0  0  0
   50.6360   -1.8880   15.1250 C   0  0  0  0  0  0  0  0  0  0  0  0
   50.8880   -2.5540   16.3580 O   0  0  0  0  0  0  0  0  0  0  0  0
   50.1180   -2.3870   17.5200 C   0  0  0  0  0  0  0  0  0  0  0  0
   49.0050   -1.5330   17.5690 C   0  0  0  0  0  0  0  0  0  0  0  0
   48.2740   -1.3960   18.7500 C   0  0  0  0  0  0  0  0  0  0  0  0
   48.6370   -2.1060   19.9060 C   0  0  0  0  0  0  0  0  0  0  0  0
   47.8710   -1.8740   21.1540 C   0  0  0  0  0  0  0  0  0  0  0  0
   46.4760   -2.0420   21.1690 C   0  0  0  0  0  0  0  0  0  0  0  0
   45.7440   -1.8310   22.3510 C   0  0  0  0  0  0  0  0  0  0  0  0
   44.2810   -2.0130   22.3840 C   0  0  0  0  0  0  0  0  0  0  0  0
   43.6450   -2.3620   21.3540 O   0  0  0  0  0  0  0  0  0  0  0  0
   46.4200   -1.4430   23.5180 C   0  0  0  0  0  0  0  0  0  0  0  0
   47.8050   -1.2640   23.5050 C   0  0  0  0  0  0  0  0  0  0  0  0
   48.5280   -1.4730   22.3290 C   0  0  0  0  0  0  0  0  0  0  0  0
   49.7460   -2.9890   19.8560 C   0  0  0  0  0  0  0  0  0  0  0  0
   50.1360   -3.8270   21.0150 C   0  0  0  0  0  0  0  0  0  0  0  0
   51.4460   -3.7730   21.5170 C   0  0  0  0  0  0  0  0  0  0  0  0
   51.8240   -4.5540   22.6240 C   0  0  0  0  0  0  0  0  0  0  0  0
   53.2350   -4.4650   23.1690 C   0  0  1  0  0  0  0  0  0  0  0  0
   53.2450   -3.8550   24.5780 C   0  0  0  0  0  0  0  0  0  0  0  0
   53.8720   -5.7850   23.1550 N   0  0  0  0  0  0  0  0  0  0  0  0
   50.8690   -5.3960   23.2220 C   0  0  0  0  0  0  0  0  0  0  0  0
   49.5690   -5.4620   22.7180 C   0  0  0  0  0  0  0  0  0  0  0  0
   49.2030   -4.6860   21.6170 C   0  0  0  0  0  0  0  0  0  0  0  0
   50.4790   -3.1070   18.6630 C   0  0  0  0  0  0  0  0  0  0  0  0
   50.7090   -0.7890   15.2620 H   0  0  0  0  0  0  0  0  0  0  0  0
   49.6300   -2.1600   14.7420 H   0  0  0  0  0  0  0  0  0  0  0  0
   51.3960   -2.2040   14.3810 H   0  0  0  0  0  0  0  0  0  0  0  0
   48.6990   -0.9630   16.7020 H   0  0  0  0  0  0  0  0  0  0  0  0
   47.4320   -0.7140   18.7700 H   0  0  0  0  0  0  0  0  0  0  0  0
   45.9680   -2.3510   20.2630 H   0  0  0  0  0  0  0  0  0  0  0  0
   45.8740   -1.2760   24.4390 H   0  0  0  0  0  0  0  0  0  0  0  0
   48.3190   -0.9600   24.4070 H   0  0  0  0  0  0  0  0  0  0  0  0
   49.6010   -1.3200   22.3340 H   0  0  0  0  0  0  0  0  0  0  0  0
   52.1650   -3.1070   21.0540 H   0  0  0  0  0  0  0  0  0  0  0  0
   53.8380   -3.7920   22.5180 H   0  0  0  0  0  0  0  0  0  0  0  0
   54.2910   -3.7440   24.9350 H   0  0  0  0  0  0  0  0  0  0  0  0
   52.7730   -2.8490   24.5600 H   0  0  0  0  0  0  0  0  0  0  0  0
   52.6930   -4.4970   25.2960 H   0  0  0  0  0  0  0  0  0  0  0  0
   54.8890   -5.6650   23.3670 H   0  0  0  0  0  0  0  0  0  0  0  0
   51.1270   -6.0020   24.0810 H   0  0  0  0  0  0  0  0  0  0  0  0
   48.8420   -6.1160   23.1820 H   0  0  0  0  0  0  0  0  0  0  0  0
   48.1920   -4.7540   21.2340 H   0  0  0  0  0  0  0  0  0  0  0  0
   51.3270   -3.7800   18.6130 H   0  0  0  0  0  0  0  0  0  0  0  0
   51.6580  -13.3390   30.9940 C   0  0  0  0  0  0  0  0  0  0  0  0
   52.5540  -12.2500   31.1900 O   0  0  0  0  0  0  0  0  0  0  0  0
   53.0150  -11.4090   30.1670 C   0  0  0  0  0  0  0  0  0  0  0  0
   52.6230  -11.5670   28.8270 C   0  0  0  0  0  0  0  0  0  0  0  0
   53.1150  -10.7090   27.8430 C   0  0  0  0  0  0  0  0  0  0  0  0
   54.0070   -9.6750   28.1710 C   0  0  0  0  0  0  0  0  0  0  0  0
   54.5540   -8.8330   27.0800 C   0  0  0  0  0  0  0  0  0  0  0  0
   53.6860   -8.1630   26.2020 C   0  0  0  0  0  0  0  0  0  0  0  0
   54.1970   -7.3570   25.1690 C   0  0  0  0  0  0  0  0  0  0  0  0
   53.2990   -6.6400   24.2460 C   0  0  0  0  0  0  0  0  0  0  0  0
   52.0470   -6.7300   24.3550 O   0  0  0  0  0  0  0  0  0  0  0  0
   55.5860   -7.2330   25.0190 C   0  0  0  0  0  0  0  0  0  0  0  0
   56.4530   -7.9060   25.8830 C   0  0  0  0  0  0  0  0  0  0  0  0
   55.9420   -8.7060   26.9060 C   0  0  0  0  0  0  0  0  0  0  0  0
   54.3880   -9.4940   29.5250 C   0  0  0  0  0  0  0  0  0  0  0  0
   55.2630   -8.3760   29.9520 C   0  0  0  0  0  0  0  0  0  0  0  0
   56.4390   -8.6360   30.6750 C   0  0  0  0  0  0  0  0  0  0  0  0
   57.2830   -7.5850   31.0760 C   0  0  0  0  0  0  0  0  0  0  0  0
   58.5610   -7.8840   31.8330 C   0  0  1  0  0  0  0  0  0  0  0  0
   59.7960   -7.5250   30.9950 C   0  0  0  0  0  0  0  0  0  0  0  0
   58.5660   -7.1840   33.1200 N   0  0  0  0  0  0  0  0  0  0  0  0
   56.9310   -6.2640   30.7430 C   0  0  0  0  0  0  0  0  0  0  0  0
   55.7570   -6.0010   30.0350 C   0  0  0  0  0  0  0  0  0  0  0  0
   54.9230   -7.0500   29.6450 C   0  0  0  0  0  0  0  0  0  0  0  0
   53.8940  -10.3750   30.5030 C   0  0  0  0  0  0  0  0  0  0  0  0
   52.1080  -14.0840   30.3040 H   0  0  0  0  0  0  0  0  0  0  0  0
   50.6940  -12.9700   30.5830 H   0  0  0  0  0  0  0  0  0  0  0  0
   51.4640  -13.8290   31.9700 H   0  0  0  0  0  0  0  0  0  0  0  0
   51.9440  -12.3560   28.5340 H   0  0  0  0  0  0  0  0  0  0  0  0
   52.8140  -10.8660   26.8140 H   0  0  0  0  0  0  0  0  0  0  0  0
   52.6140   -8.2600   26.3350 H   0  0  0  0  0  0  0  0  0  0  0  0
   56.0010   -6.6160   24.2300 H   0  0  0  0  0  0  0  0  0  0  0  0
   57.5230   -7.8090   25.7580 H   0  0  0  0  0  0  0  0  0  0  0  0
   56.6270   -9.2300   27.5610 H   0  0  0  0  0  0  0  0  0  0  0  0
   56.7030   -9.6610   30.9100 H   0  0  0  0  0  0  0  0  0  0  0  0
   58.6150   -8.9770   32.0420 H   0  0  0  0  0  0  0  0  0  0  0  0
   60.7200   -7.8060   31.5440 H   0  0  0  0  0  0  0  0  0  0  0  0
   59.7780   -8.0800   30.0330 H   0  0  0  0  0  0  0  0  0  0  0  0
   59.8300   -6.4360   30.7800 H   0  0  0  0  0  0  0  0  0  0  0  0
   59.3670   -7.5430   33.6900 H   0  0  0  0  0  0  0  0  0  0  0  0
   57.5660   -5.4350   31.0280 H   0  0  0  0  0  0  0  0  0  0  0  0
   55.4920   -4.9810   29.7880 H   0  0  0  0  0  0  0  0  0  0  0  0
   54.0120   -6.8280   29.1020 H   0  0  0  0  0  0  0  0  0  0  0  0
   54.1770  -10.2450   31.5410 H   0  0  0  0  0  0  0  0  0  0  0  0
   -5.3600   -5.4500   -1.6620 C   0  0  0  0  0  0  0  0  0  0  0  0
   -4.0080   -5.1380   -1.8390 O   0  0  0  0  0  0  0  0  0  0  0  0
   -5.7120   -5.0850   -0.6730 H   0  0  0  0  0  0  0  0  0  0  0  0
   -5.4870   -6.5510   -1.7020 H   0  0  0  0  0  0  0  0  0  0  0  0
   -5.9690   -4.9900   -2.4700 H   0  0  0  0  0  0  0  0  0  0  0  0
   62.0320   -3.9440   32.1160 C   0  0  0  0  0  0  0  0  0  0  0  0
   60.5200   -3.9260   32.3850 C   0  0  0  0  0  0  0  0  0  0  0  0
   60.2460   -3.0560   33.6270 C   0  0  0  0  0  0  0  0  0  0  0  0
   59.8020   -3.3490   31.1500 C   0  0  0  0  0  0  0  0  0  0  0  0
   60.1130   -5.2830   32.6180 O   0  0  0  0  0  0  0  0  0  0  0  0
   58.8110   -5.7200   32.9030 C   0  0  0  0  0  0  0  0  0  0  0  0
   57.8440   -4.9180   32.9820 O   0  0  0  0  0  0  0  0  0  0  0  0
   62.4160   -2.9190   31.9260 H   0  0  0  0  0  0  0  0  0  0  0  0
   62.5740   -4.3690   32.9890 H   0  0  0  0  0  0  0  0  0  0  0  0
   62.2590   -4.5760   31.2300 H   0  0  0  0  0  0  0  0  0  0  0  0
   60.7050   -3.5180   34.5270 H   0  0  0  0  0  0  0  0  0  0  0  0
   59.1580   -2.9420   33.8090 H   0  0  0  0  0  0  0  0  0  0  0  0
   60.6730   -2.0390   33.4940 H   0  0  0  0  0  0  0  0  0  0  0  0
   59.9430   -4.0210   30.2760 H   0  0  0  0  0  0  0  0  0  0  0  0
   58.7140   -3.2350   31.3310 H   0  0  0  0  0  0  0  0  0  0  0  0
   60.2080   -2.3460   30.8950 H   0  0  0  0  0  0  0  0  0  0  0  0
  1 28  1  0  0  0  0
  1 26  1  0  0  0  0
  2  1  1  0  0  0  0
  3  4  1  0  0  0  0
  3  2  1  0  0  0  0
  4 29  1  0  0  0  0
  5 30  1  0  0  0  0
  5  4  2  0  0  0  0
  6  5  1  0  0  0  0
  7  6  1  0  0  0  0
  7 14  1  0  0  0  0
  8  7  2  0  0  0  0
  9  8  1  0  0  0  0
  9 12  2  0  0  0  0
 10  9  1  0  0  0  0
 11 10  2  0  0  0  0
 12 13  1  0  0  0  0
 13 14  2  0  0  0  0
 13 33  1  0  0  0  0
 14 34  1  0  0  0  0
 15 25  1  0  0  0  0
 15  6  2  0  0  0  0
 16 15  1  0  0  0  0
 16 17  1  0  0  0  0
 17 35  1  0  0  0  0
 18 17  2  0  0  0  0
 18 19  1  0  0  0  0
 19 20  1  0  0  0  0
 19 36  1  1  0  0  0
 20 38  1  0  0  0  0
 20 37  1  0  0  0  0
 21 40  1  0  0  0  0
 21 19  1  0  0  0  0
 22 18  1  0  0  0  0
 23 24  1  0  0  0  0
 23 22  2  0  0  0  0
 24 16  2  0  0  0  0
 25  3  2  0  0  0  0
 27  1  1  0  0  0  0
 31  8  1  0  0  0  0
 32 12  1  0  0  0  0
 39 20  1  0  0  0  0
 41 22  1  0  0  0  0
 42 23  1  0  0  0  0
 43 24  1  0  0  0  0
 44 25  1  0  0  0  0
 45 46  1  0  0  0  0
 46 47  1  0  0  0  0
 47 69  1  0  0  0  0
 48 47  2  0  0  0  0
 48 49  1  0  0  0  0
 49 50  2  0  0  0  0
 50 59  1  0  0  0  0
 50 51  1  0  0  0  0
 51 52  2  0  0  0  0
 51 58  1  0  0  0  0
 52 53  1  0  0  0  0
 53 54  1  0  0  0  0
 53 56  2  0  0  0  0
 54 21  1  0  0  0  0
 55 54  2  0  0  0  0
 56 76  1  0  0  0  0
 57 56  1  0  0  0  0
 57 77  1  0  0  0  0
 58 57  2  0  0  0  0
 59 60  1  0  0  0  0
 60 61  2  0  0  0  0
 60 68  1  0  0  0  0
 61 62  1  0  0  0  0
 62 63  1  0  0  0  0
 62 66  2  0  0  0  0
 63 80  1  6  0  0  0
 63 65  1  0  0  0  0
 63 64  1  0  0  0  0
 64 81  1  0  0  0  0
 64 83  1  0  0  0  0
 65 84  1  0  0  0  0
 65 98  1  0  0  0  0
 66 85  1  0  0  0  0
 67 66  1  0  0  0  0
 67 86  1  0  0  0  0
 68 67  2  0  0  0  0
 69 88  1  0  0  0  0
 69 59  2  0  0  0  0
 70 45  1  0  0  0  0
 71 45  1  0  0  0  0
 72 45  1  0  0  0  0
 73 48  1  0  0  0  0
 74 49  1  0  0  0  0
 75 52  1  0  0  0  0
 78 58  1  0  0  0  0
 79 61  1  0  0  0  0
 82 64  1  0  0  0  0
 87 68  1  0  0  0  0
 89116  1  0  0  0  0
 90 89  1  0  0  0  0
 91 90  1  0  0  0  0
 92117  1  0  0  0  0
 92 91  2  0  0  0  0
 93 92  1  0  0  0  0
 94 93  2  0  0  0  0
 94103  1  0  0  0  0
 95 94  1  0  0  0  0
 96119  1  0  0  0  0
 96 95  2  0  0  0  0
 97 96  1  0  0  0  0
 98 99  2  0  0  0  0
 98 97  1  0  0  0  0
100 97  2  0  0  0  0
100101  1  0  0  0  0
101102  2  0  0  0  0
102 95  1  0  0  0  0
102122  1  0  0  0  0
103113  2  0  0  0  0
104103  1  0  0  0  0
104105  1  0  0  0  0
105123  1  0  0  0  0
106105  2  0  0  0  0
106107  1  0  0  0  0
107109  1  0  0  0  0
107124  1  1  0  0  0
108125  1  0  0  0  0
108107  1  0  0  0  0
109128  1  0  0  0  0
110106  1  0  0  0  0
111112  1  0  0  0  0
111110  2  0  0  0  0
112104  2  0  0  0  0
113 91  1  0  0  0  0
113132  1  0  0  0  0
114 89  1  0  0  0  0
115 89  1  0  0  0  0
118 93  1  0  0  0  0
120100  1  0  0  0  0
121101  1  0  0  0  0
126108  1  0  0  0  0
127108  1  0  0  0  0
129110  1  0  0  0  0
130111  1  0  0  0  0
131112  1  0  0  0  0
133134  1  0  0  0  0
133158  1  0  0  0  0
134135  1  0  0  0  0
135136  2  0  0  0  0
135157  1  0  0  0  0
136137  1  0  0  0  0
137162  1  0  0  0  0
137138  2  0  0  0  0
138139  1  0  0  0  0
139146  1  0  0  0  0
140139  2  0  0  0  0
140141  1  0  0  0  0
141144  2  0  0  0  0
142141  1  0  0  0  0
142109  1  0  0  0  0
143142  2  0  0  0  0
144145  1  0  0  0  0
144164  1  0  0  0  0
145165  1  0  0  0  0
146166  1  0  0  0  0
146145  2  0  0  0  0
147148  1  0  0  0  0
147138  1  0  0  0  0
148149  1  0  0  0  0
149167  1  0  0  0  0
149150  2  0  0  0  0
150151  1  0  0  0  0
151168  1  1  0  0  0
151152  1  0  0  0  0
152171  1  0  0  0  0
152169  1  0  0  0  0
152170  1  0  0  0  0
153186  1  0  0  0  0
153172  1  0  0  0  0
153151  1  0  0  0  0
154173  1  0  0  0  0
154150  1  0  0  0  0
155154  2  0  0  0  0
156148  2  0  0  0  0
156155  1  0  0  0  0
157147  2  0  0  0  0
159133  1  0  0  0  0
160133  1  0  0  0  0
161136  1  0  0  0  0
163140  1  0  0  0  0
174155  1  0  0  0  0
175156  1  0  0  0  0
176157  1  0  0  0  0
177204  1  0  0  0  0
177178  1  0  0  0  0
179178  1  0  0  0  0
179201  1  0  0  0  0
180179  2  0  0  0  0
181180  1  0  0  0  0
181182  2  0  0  0  0
182191  1  0  0  0  0
183182  1  0  0  0  0
183190  1  0  0  0  0
184183  2  0  0  0  0
185184  1  0  0  0  0
185188  2  0  0  0  0
186185  1  0  0  0  0
187186  2  0  0  0  0
188189  1  0  0  0  0
189190  2  0  0  0  0
189209  1  0  0  0  0
190210  1  0  0  0  0
191201  2  0  0  0  0
191192  1  0  0  0  0
192193  2  0  0  0  0
192200  1  0  0  0  0
193194  1  0  0  0  0
194198  2  0  0  0  0
194195  1  0  0  0  0
195212  1  6  0  0  0
195197  1  0  0  0  0
196195  1  0  0  0  0
196213  1  0  0  0  0
196215  1  0  0  0  0
197216  1  0  0  0  0
197230  1  0  0  0  0
198217  1  0  0  0  0
199218  1  0  0  0  0
199198  1  0  0  0  0
200199  2  0  0  0  0
201220  1  0  0  0  0
202177  1  0  0  0  0
203177  1  0  0  0  0
205180  1  0  0  0  0
206181  1  0  0  0  0
207184  1  0  0  0  0
208188  1  0  0  0  0
211193  1  0  0  0  0
214196  1  0  0  0  0
219200  1  0  0  0  0
221248  1  0  0  0  0
221246  1  0  0  0  0
222221  1  0  0  0  0
223222  1  0  0  0  0
224223  1  0  0  0  0
224249  1  0  0  0  0
225224  2  0  0  0  0
226235  2  0  0  0  0
226225  1  0  0  0  0
227234  1  0  0  0  0
227226  1  0  0  0  0
228227  2  0  0  0  0
229232  2  0  0  0  0
229228  1  0  0  0  0
230229  1  0  0  0  0
231230  2  0  0  0  0
232233  1  0  0  0  0
233253  1  0  0  0  0
233234  2  0  0  0  0
234254  1  0  0  0  0
235245  1  0  0  0  0
236235  1  0  0  0  0
236237  1  0  0  0  0
237255  1  0  0  0  0
238237  2  0  0  0  0
238239  1  0  0  0  0
239256  1  1  0  0  0
240239  1  0  0  0  0
240258  1  0  0  0  0
240257  1  0  0  0  0
241239  1  0  0  0  0
241260  1  0  0  0  0
242238  1  0  0  0  0
243244  1  0  0  0  0
243242  2  0  0  0  0
244236  2  0  0  0  0
245264  1  0  0  0  0
245223  2  0  0  0  0
247221  1  0  0  0  0
250225  1  0  0  0  0
251228  1  0  0  0  0
252232  1  0  0  0  0
259240  1  0  0  0  0
261242  1  0  0  0  0
262243  1  0  0  0  0
263244  1  0  0  0  0
265290  1  0  0  0  0
265266  1  0  0  0  0
266267  1  0  0  0  0
267268  2  0  0  0  0
267289  1  0  0  0  0
268269  1  0  0  0  0
269294  1  0  0  0  0
269270  2  0  0  0  0
270271  1  0  0  0  0
271272  2  0  0  0  0
271278  1  0  0  0  0
272273  1  0  0  0  0
273274  1  0  0  0  0
273276  2  0  0  0  0
274241  1  0  0  0  0
275274  2  0  0  0  0
276296  1  0  0  0  0
277276  1  0  0  0  0
277297  1  0  0  0  0
278298  1  0  0  0  0
278277  2  0  0  0  0
279270  1  0  0  0  0
279280  1  0  0  0  0
280281  2  0  0  0  0
280288  1  0  0  0  0
281282  1  0  0  0  0
282283  1  0  0  0  0
282286  2  0  0  0  0
283300  1  6  0  0  0
283284  1  0  0  0  0
284301  1  0  0  0  0
284303  1  0  0  0  0
285283  1  0  0  0  0
285304  1  0  0  0  0
285318  1  0  0  0  0
286305  1  0  0  0  0
287306  1  0  0  0  0
287286  1  0  0  0  0
288287  2  0  0  0  0
289279  2  0  0  0  0
291265  1  0  0  0  0
292265  1  0  0  0  0
293268  1  0  0  0  0
295272  1  0  0  0  0
299281  1  0  0  0  0
302284  1  0  0  0  0
307288  1  0  0  0  0
308289  1  0  0  0  0
309310  1  0  0  0  0
309336  1  0  0  0  0
311333  1  0  0  0  0
311310  1  0  0  0  0
312311  2  0  0  0  0
313314  2  0  0  0  0
313312  1  0  0  0  0
314323  1  0  0  0  0
315314  1  0  0  0  0
316339  1  0  0  0  0
316315  2  0  0  0  0
317316  1  0  0  0  0
318319  2  0  0  0  0
318317  1  0  0  0  0
320317  2  0  0  0  0
320321  1  0  0  0  0
321322  2  0  0  0  0
322315  1  0  0  0  0
322342  1  0  0  0  0
323324  1  0  0  0  0
323333  2  0  0  0  0
324325  1  0  0  0  0
325343  1  0  0  0  0
325326  2  0  0  0  0
326327  1  0  0  0  0
327344  1  1  0  0  0
327329  1  0  0  0  0
328345  1  0  0  0  0
328327  1  0  0  0  0
329348  1  0  0  0  0
330349  1  0  0  0  0
330326  1  0  0  0  0
331330  2  0  0  0  0
332324  2  0  0  0  0
332331  1  0  0  0  0
333352  1  0  0  0  0
334309  1  0  0  0  0
335309  1  0  0  0  0
337312  1  0  0  0  0
338313  1  0  0  0  0
340320  1  0  0  0  0
341321  1  0  0  0  0
346328  1  0  0  0  0
347328  1  0  0  0  0
350331  1  0  0  0  0
351332  1  0  0  0  0
353355  1  0  0  0  0
354 10  1  0  0  0  0
354353  1  0  0  0  0
356353  1  0  0  0  0
357353  1  0  0  0  0
358359  1  0  0  0  0
358366  1  0  0  0  0
359362  1  0  0  0  0
359360  1  0  0  0  0
360369  1  0  0  0  0
360368  1  0  0  0  0
361372  1  0  0  0  0
361359  1  0  0  0  0
362363  1  0  0  0  0
363364  2  0  0  0  0
363329  1  0  0  0  0
365358  1  0  0  0  0
367358  1  0  0  0  0
370360  1  0  0  0  0
371361  1  0  0  0  0
373361  1  0  0  0  0
M  END
$$$$
