
 OpenBabel07272219403D

285302  0  0  1  0  0  0  0  0999 V2000
   -6.2747   16.0892   -7.2135 H   0  0  0  0  0  0  0  0  0  0  0  0
  -15.0761   15.9002   -3.5576 H   0  0  0  0  0  0  0  0  0  0  0  0
  -16.2895   18.5656   -4.2463 H   0  0  0  0  0  0  0  0  0  0  0  0
  -22.8568   22.3716   -2.4669 H   0  0  0  0  0  0  0  0  0  0  0  0
  -20.9574   20.9464   -2.9620 H   0  0  0  0  0  0  0  0  0  0  0  0
   21.8332   13.6000   -9.4093 H   0  0  0  0  0  0  0  0  0  0  0  0
  -19.6179   15.3716   -3.7028 H   0  0  0  0  0  0  0  0  0  0  0  0
    6.6483    9.7786   -4.0124 C   0  0  0  0  0  0  0  0  0  0  0  0
   35.6295   34.8748   -6.0587 C   0  0  0  0  0  0  0  0  0  0  0  0
  -22.8641   22.0347   -7.8692 H   0  0  0  0  0  0  0  0  0  0  0  0
  -24.4509   21.5132  -11.2434 H   0  0  0  0  0  0  0  0  0  0  0  0
  -24.1571   17.4156   -9.0876 H   0  0  0  0  0  0  0  0  0  0  0  0
  -21.7705   22.3148  -10.3106 H   0  0  0  0  0  0  0  0  0  0  0  0
   -6.1987   15.0756   -2.4099 H   0  0  0  0  0  0  0  0  0  0  0  0
  -13.8337   19.2942   -4.5066 H   0  0  0  0  0  0  0  0  0  0  0  0
   34.2645   28.6245   -9.2600 C   0  0  0  0  0  0  0  0  0  0  0  0
  -24.8205   21.1433   -6.0389 H   0  0  0  0  0  0  0  0  0  0  0  0
   -9.7331   13.7350   -0.6486 H   0  0  0  0  0  0  0  0  0  0  0  0
  -18.7609   19.5045   -4.6759 H   0  0  0  0  0  0  0  0  0  0  0  0
   29.7419   23.0516   -8.6392 C   0  0  0  0  0  0  0  0  0  0  0  0
   24.8936   22.1788   -8.2128 C   0  0  0  0  0  0  0  0  0  0  0  0
    9.2159   14.5492   -5.4033 C   0  0  0  0  0  0  0  0  0  0  0  0
   15.7095   14.8460   -6.2192 C   0  0  0  0  0  0  0  0  0  0  0  0
   20.8360   17.6417   -5.9866 C   0  0  0  0  0  0  0  0  0  0  0  0
   19.8332   16.9173   -6.6931 C   0  0  0  0  0  0  0  0  0  0  0  0
  -11.3772   13.6676   -4.5978 H   0  0  0  0  0  0  0  0  0  0  0  0
    1.8824   16.7136   -4.9819 C   0  0  0  0  0  0  0  0  0  0  0  0
    7.7363   13.7496   -7.1470 C   0  0  0  0  0  0  0  0  0  0  0  0
   10.6562   14.8394   -4.8756 C   0  0  0  0  0  0  0  0  0  0  0  0
   14.1980   16.7154   -6.0797 C   0  0  0  0  0  0  0  0  0  0  0  0
   24.7618   20.8709   -6.0570 C   0  0  1  0  0  0  0  0  0  0  0  0
   36.5561   28.6118  -10.1169 C   0  0  0  0  0  0  0  0  0  0  0  0
   25.5313   22.5481   -9.3895 C   0  0  0  0  0  0  0  0  0  0  0  0
   29.5379   24.7570  -10.3554 C   0  0  0  0  0  0  0  0  0  0  0  0
   14.3984   15.3479   -5.9409 C   0  0  0  0  0  0  0  0  0  0  0  0
  -21.9734   18.8961  -13.4610 H   0  0  0  0  0  0  0  0  0  0  0  0
  -19.3096   19.1647  -10.7863 H   0  0  0  0  0  0  0  0  0  0  0  0
  -19.1586   21.3557  -13.8675 H   0  0  0  0  0  0  0  0  0  0  0  0
  -20.6563   20.7557  -14.5915 H   0  0  0  0  0  0  0  0  0  0  0  0
   30.4018   18.9443   -8.9308 C   0  0  0  0  0  0  0  0  0  0  0  0
   35.9024   34.1479   -7.2800 O   0  0  0  0  0  0  0  0  0  0  0  0
    8.0295   14.7173   -4.6029 C   0  0  0  0  0  0  0  0  0  0  0  0
    1.6680   14.0716   -4.2662 C   0  0  0  0  0  0  0  0  0  0  0  0
   -4.1393   15.5388   -6.1443 H   0  0  0  0  0  0  0  0  0  0  0  0
  -20.8546   21.0212  -11.8371 O   0  0  0  0  0  0  0  0  0  0  0  0
  -22.0615   21.5525  -12.1286 C   0  0  0  0  0  0  0  0  0  0  0  0
  -19.0024   19.5292  -11.7703 C   0  0  0  0  0  0  0  0  0  0  0  0
   -2.3363   14.9055   -4.1531 N   0  0  0  0  0  0  0  0  0  0  0  0
   21.4408   18.8991   -7.9476 C   0  0  0  0  0  0  0  0  0  0  0  0
   -9.7514   18.0015   -4.8972 H   0  0  0  0  0  0  0  0  0  0  0  0
  -22.8387   17.9718   -4.4664 H   0  0  0  0  0  0  0  0  0  0  0  0
    2.9929   14.5696   -4.6164 C   0  0  0  0  0  0  0  0  0  0  0  0
  -18.4448   18.7334  -12.2694 H   0  0  0  0  0  0  0  0  0  0  0  0
  -18.3320   20.3786  -11.6205 H   0  0  0  0  0  0  0  0  0  0  0  0
  -21.6591   18.5011  -11.7645 H   0  0  0  0  0  0  0  0  0  0  0  0
  -19.2305   19.7126  -14.5238 H   0  0  0  0  0  0  0  0  0  0  0  0
  -20.6350   17.8368  -13.0458 H   0  0  0  0  0  0  0  0  0  0  0  0
   -8.1223   15.4861   -1.2257 H   0  0  0  0  0  0  0  0  0  0  0  0
    3.0384   15.9272   -4.9740 C   0  0  0  0  0  0  0  0  0  0  0  0
  -24.4855   23.1554   -9.9056 C   0  0  0  0  0  0  0  0  0  0  0  0
   16.8037   15.6982   -6.5937 C   0  0  0  0  0  0  0  0  0  0  0  0
  -15.0272   17.2373   -1.9303 C   0  0  0  0  0  0  0  0  0  0  0  0
   20.5636   13.8132   -6.4900 C   0  0  0  0  0  0  0  0  0  0  0  0
   31.3497   19.7182   -8.2477 C   0  0  0  0  0  0  0  0  0  0  0  0
   -0.9406   14.4304   -3.6184 C   0  0  1  0  0  0  0  0  0  0  0  0
   22.7766   19.2913   -5.8278 C   0  0  0  0  0  0  0  0  0  0  0  0
  -19.7949   20.4748  -13.9820 C   0  0  0  0  0  0  0  0  0  0  0  0
   -8.3709   16.1893   -5.9884 H   0  0  0  0  0  0  0  0  0  0  0  0
  -25.1005   22.5570   -3.8034 O   0  0  0  0  0  0  0  0  0  0  0  0
   29.8914   16.7114   -9.9203 C   0  0  0  0  0  0  0  0  0  0  0  0
  -24.3964   19.2345  -10.7355 H   0  0  0  0  0  0  0  0  0  0  0  0
   16.5238   17.0661   -6.7102 C   0  0  0  0  0  0  0  0  0  0  0  0
  -21.1864   18.7232  -12.7245 C   0  0  0  0  0  0  0  0  0  0  0  0
  -11.3603   12.5027   -2.2243 O   0  0  0  0  0  0  0  0  0  0  0  0
   11.5826   14.4173   -6.6472 H   0  0  0  0  0  0  0  0  0  0  0  0
  -21.9630   15.7830   -3.8736 H   0  0  0  0  0  0  0  0  0  0  0  0
   29.1544   19.4739   -9.2944 C   0  0  0  0  0  0  0  0  0  0  0  0
  -11.4821   19.7243   -5.0879 H   0  0  0  0  0  0  0  0  0  0  0  0
  -12.8047   15.2787   -3.4785 H   0  0  0  0  0  0  0  0  0  0  0  0
   10.7900   15.2132   -3.7354 O   0  0  0  0  0  0  0  0  0  0  0  0
   -3.5973   14.8881   -3.5059 C   0  0  0  0  0  0  0  0  0  0  0  0
   -3.6543   14.5446   -2.3439 O   0  0  0  0  0  0  0  0  0  0  0  0
  -22.8042   21.2135  -13.0299 O   0  0  0  0  0  0  0  0  0  0  0  0
  -20.2372   19.9448  -12.5991 C   0  0  0  0  0  0  0  0  0  0  0  0
    5.2221   11.7269   -3.7041 C   0  0  0  0  0  0  0  0  0  0  0  0
   35.7456   26.5777   -8.9084 C   0  0  0  0  0  0  0  0  0  0  0  0
   21.6533   18.6132   -6.5973 C   0  0  0  0  0  0  0  0  0  0  0  0
   18.2009   15.1822   -7.0036 C   0  0  0  0  0  0  0  0  0  0  0  0
   -8.8742   15.7449   -3.2507 C   0  0  0  0  0  0  0  0  0  0  0  0
   -8.8829   15.2137   -1.9526 C   0  0  0  0  0  0  0  0  0  0  0  0
   -9.7481   14.1598   -1.6491 C   0  0  0  0  0  0  0  0  0  0  0  0
  -10.5624   13.5634   -2.6186 C   0  0  0  0  0  0  0  0  0  0  0  0
  -10.6115   14.0517   -3.9293 C   0  0  0  0  0  0  0  0  0  0  0  0
  -10.0240   15.2955   -4.1939 C   0  0  0  0  0  0  0  0  0  0  0  0
   -7.5208   15.6419   -4.0642 C   0  0  0  0  0  0  0  0  0  0  0  0
  -10.7677   17.7540   -4.6054 C   0  0  0  0  0  0  0  0  0  0  0  0
  -11.0798   16.4594   -4.1530 C   0  0  0  0  0  0  0  0  0  0  0  0
  -12.4791   16.2490   -3.8413 C   0  0  0  0  0  0  0  0  0  0  0  0
  -13.5034   17.2409   -3.9629 C   0  0  0  0  0  0  0  0  0  0  0  0
  -13.1026   18.4938   -4.4149 C   0  0  0  0  0  0  0  0  0  0  0  0
  -11.7614   18.7369   -4.7293 C   0  0  0  0  0  0  0  0  0  0  0  0
   -6.2321   15.3069   -3.4711 C   0  0  0  0  0  0  0  0  0  0  0  0
   -4.9723   15.2643   -4.1790 C   0  0  0  0  0  0  0  0  0  0  0  0
   -5.0410   15.5630   -5.5388 C   0  0  0  0  0  0  0  0  0  0  0  0
   -6.2619   15.8734   -6.1483 C   0  0  0  0  0  0  0  0  0  0  0  0
   -7.4699   15.9218   -5.4424 C   0  0  0  0  0  0  0  0  0  0  0  0
  -14.9776   16.9827   -3.4523 C   0  0  2  0  0  0  0  0  0  0  0  0
  -16.2648   17.5737   -4.0664 N   0  0  0  0  0  0  0  0  0  0  0  0
   20.1890   14.8127   -5.5843 C   0  0  0  0  0  0  0  0  0  0  0  0
   19.1848   15.7178   -5.9700 C   0  0  0  0  0  0  0  0  0  0  0  0
  -23.9626   21.0989   -5.3704 C   0  0  0  0  0  0  0  0  0  0  0  0
  -23.9843   21.8221   -4.1927 C   0  0  0  0  0  0  0  0  0  0  0  0
  -22.8423   21.8158   -3.4016 C   0  0  0  0  0  0  0  0  0  0  0  0
  -21.7224   21.0346   -3.7276 C   0  0  0  0  0  0  0  0  0  0  0  0
  -21.6379   20.2148   -4.8882 C   0  0  0  0  0  0  0  0  0  0  0  0
  -22.8136   20.3863   -5.7532 C   0  0  0  0  0  0  0  0  0  0  0  0
  -23.3492   18.6806   -7.5445 C   0  0  0  0  0  0  0  0  0  0  0  0
  -20.8821   18.9009   -4.6802 C   0  0  0  0  0  0  0  0  0  0  0  0
  -21.7593   17.8309   -4.4360 C   0  0  0  0  0  0  0  0  0  0  0  0
  -21.2681   16.5921   -4.0895 C   0  0  0  0  0  0  0  0  0  0  0  0
  -19.9033   16.3779   -3.9918 C   0  0  0  0  0  0  0  0  0  0  0  0
  -18.9334   17.3807   -4.2136 C   0  0  0  0  0  0  0  0  0  0  0  0
  -19.4516   18.6779   -4.5369 C   0  0  0  0  0  0  0  0  0  0  0  0
  -22.9555   19.9820   -7.1924 C   0  0  0  0  0  0  0  0  0  0  0  0
  -23.1061   21.0113   -8.1450 C   0  0  0  0  0  0  0  0  0  0  0  0
  -23.6432   20.7580   -9.4102 C   0  0  0  0  0  0  0  0  0  0  0  0
  -23.9919   19.4519   -9.7492 C   0  0  0  0  0  0  0  0  0  0  0  0
  -23.8424   18.4221   -8.8234 C   0  0  0  0  0  0  0  0  0  0  0  0
  -17.4614   16.8666   -4.0222 C   0  0  0  0  0  0  0  0  0  0  0  0
  -23.8051   21.8764  -10.4385 C   0  0  2  0  0  0  0  0  0  0  0  0
  -22.4844   22.1536  -11.0033 N   0  0  0  0  0  0  0  0  0  0  0  0
  -17.3390   15.6864   -3.7506 O   0  0  0  0  0  0  0  0  0  0  0  0
   33.7585   29.1688  -10.4601 C   0  0  0  0  0  0  0  0  0  0  0  0
   21.6022   12.5984   -9.0334 C   0  0  0  0  0  0  0  0  0  0  0  0
   28.3786   18.8447   -9.7200 H   0  0  0  0  0  0  0  0  0  0  0  0
   36.4061   34.6521   -5.3218 H   0  0  0  0  0  0  0  0  0  0  0  0
   34.6510   34.5794   -5.6698 H   0  0  0  0  0  0  0  0  0  0  0  0
   33.4105   28.5630   -8.1445 C   0  0  0  0  0  0  0  0  0  0  0  0
   37.6066   27.8883  -10.6830 C   0  0  0  0  0  0  0  0  0  0  0  0
   29.6144   23.4174   -9.9938 C   0  0  0  0  0  0  0  0  0  0  0  0
   29.6709   25.7534   -9.3966 C   0  0  0  0  0  0  0  0  0  0  0  0
   26.8269   22.1181   -9.6476 C   0  0  0  0  0  0  0  0  0  0  0  0
   28.9011   20.8251   -9.0443 C   0  0  0  0  0  0  0  0  0  0  0  0
   29.9151   25.4223   -8.0577 C   0  0  0  0  0  0  0  0  0  0  0  0
   29.9395   24.0715   -7.6893 C   0  0  0  0  0  0  0  0  0  0  0  0
   35.6154   27.9500   -9.1405 C   0  0  0  0  0  0  0  0  0  0  0  0
   36.7854   25.8832   -9.5350 C   0  0  0  0  0  0  0  0  0  0  0  0
   30.6132   26.2173   -5.9078 O   0  0  0  0  0  0  0  0  0  0  0  0
   23.5137   20.2120   -6.5055 N   0  0  0  0  0  0  0  0  0  0  0  0
   37.6950   26.5244  -10.3941 C   0  0  0  0  0  0  0  0  0  0  0  0
   29.8714   21.6126   -8.1971 C   0  0  0  0  0  0  0  0  0  0  0  0
   30.2414   26.4819   -7.0347 C   0  0  0  0  0  0  0  0  0  0  0  0
   19.7899   13.4994   -7.6169 C   0  0  0  0  0  0  0  0  0  0  0  0
   31.1100   21.0455   -7.8843 C   0  0  0  0  0  0  0  0  0  0  0  0
   13.2633   14.4540   -5.3175 C   0  0  2  0  0  0  0  0  0  0  0  0
   20.4756   18.2090   -8.6684 C   0  0  0  0  0  0  0  0  0  0  0  0
   15.2381   17.5637   -6.4654 C   0  0  0  0  0  0  0  0  0  0  0  0
    4.2953   12.3076   -4.5734 C   0  0  0  0  0  0  0  0  0  0  0  0
   23.0367   19.0168   -4.6728 O   0  0  0  0  0  0  0  0  0  0  0  0
   11.7815   14.6670   -5.6913 N   0  0  0  0  0  0  0  0  0  0  0  0
   19.6944   17.2234   -8.0703 C   0  0  0  0  0  0  0  0  0  0  0  0
    6.6816   14.4088   -5.0328 C   0  0  0  0  0  0  0  0  0  0  0  0
    6.5900   13.9280   -6.3600 C   0  0  0  0  0  0  0  0  0  0  0  0
    9.0209   14.0503   -6.6892 C   0  0  0  0  0  0  0  0  0  0  0  0
   21.7052   11.8781   -9.8500 H   0  0  0  0  0  0  0  0  0  0  0  0
   22.3030   12.3357   -8.2363 H   0  0  0  0  0  0  0  0  0  0  0  0
   28.9655   16.5615   -9.3584 H   0  0  0  0  0  0  0  0  0  0  0  0
   30.4117   15.7557  -10.0251 H   0  0  0  0  0  0  0  0  0  0  0  0
   36.5048   30.1117   -9.9158 C   0  0  0  0  0  0  0  0  0  0  0  0
  -26.3333   22.6272   -4.5770 C   0  0  0  0  0  0  0  0  0  0  0  0
  -12.7598   12.4009   -2.5945 C   0  0  0  0  0  0  0  0  0  0  0  0
    6.9642   10.1307   -4.9993 H   0  0  0  0  0  0  0  0  0  0  0  0
    4.3069   13.7018   -4.7062 C   0  0  0  0  0  0  0  0  0  0  0  0
  -27.0628   23.2450   -4.0447 H   0  0  0  0  0  0  0  0  0  0  0  0
  -26.1344   23.0763   -5.5549 H   0  0  0  0  0  0  0  0  0  0  0  0
  -26.7505   21.6241   -4.7118 H   0  0  0  0  0  0  0  0  0  0  0  0
  -13.2935   13.2960   -2.2625 H   0  0  0  0  0  0  0  0  0  0  0  0
  -12.8578   12.2881   -3.6771 H   0  0  0  0  0  0  0  0  0  0  0  0
  -13.1933   11.5244   -2.1047 H   0  0  0  0  0  0  0  0  0  0  0  0
   36.3949   33.9961   -9.6749 H   0  0  0  0  0  0  0  0  0  0  0  0
    6.5631    8.6887   -4.0280 H   0  0  0  0  0  0  0  0  0  0  0  0
   37.1176   23.5974  -10.4088 C   0  0  0  0  0  0  0  0  0  0  0  0
    5.4619   14.4868   -4.0220 C   0  0  0  0  0  0  0  0  0  0  0  0
    5.9169   12.5127   -2.7729 C   0  0  0  0  0  0  0  0  0  0  0  0
    5.8749   13.9125   -2.8119 C   0  0  0  0  0  0  0  0  0  0  0  0
  -25.4669   22.9209   -9.4873 H   0  0  0  0  0  0  0  0  0  0  0  0
  -23.8843   23.6415   -9.1350 H   0  0  0  0  0  0  0  0  0  0  0  0
  -24.6294   23.8705  -10.7198 H   0  0  0  0  0  0  0  0  0  0  0  0
  -14.2303   16.6920   -1.4204 H   0  0  0  0  0  0  0  0  0  0  0  0
  -14.9143   18.3018   -1.7135 H   0  0  0  0  0  0  0  0  0  0  0  0
  -15.9801   16.9032   -1.5104 H   0  0  0  0  0  0  0  0  0  0  0  0
   27.5367   21.3695   -8.6920 C   0  0  0  0  0  0  0  0  0  0  0  0
   25.5398   21.3639   -7.2807 C   0  0  0  0  0  0  0  0  0  0  0  0
   26.8685   20.9775   -7.5115 C   0  0  0  0  0  0  0  0  0  0  0  0
    0.4642   14.8746   -4.2577 C   0  0  0  0  0  0  0  0  0  0  0  0
    0.6282   16.2069   -4.6309 C   0  0  0  0  0  0  0  0  0  0  0  0
  -23.3406   17.8781   -6.8129 H   0  0  0  0  0  0  0  0  0  0  0  0
   20.3558   18.4178   -9.7285 H   0  0  0  0  0  0  0  0  0  0  0  0
   13.4681   13.4409   -5.6740 H   0  0  0  0  0  0  0  0  0  0  0  0
   -2.3378   15.1841   -5.1217 H   0  0  0  0  0  0  0  0  0  0  0  0
    6.5231   12.0249   -2.0129 H   0  0  0  0  0  0  0  0  0  0  0  0
    6.5503   14.4450   -2.1465 H   0  0  0  0  0  0  0  0  0  0  0  0
   35.6284   35.9457   -6.2780 H   0  0  0  0  0  0  0  0  0  0  0  0
    9.8695   13.8686   -7.3389 H   0  0  0  0  0  0  0  0  0  0  0  0
   32.3183   19.2795   -8.0186 H   0  0  0  0  0  0  0  0  0  0  0  0
   31.9181   21.6447   -7.4713 H   0  0  0  0  0  0  0  0  0  0  0  0
    1.5740   13.0352   -3.9504 H   0  0  0  0  0  0  0  0  0  0  0  0
   -0.7716   14.7326   -2.1074 C   0  0  0  0  0  0  0  0  0  0  0  0
    1.9663   17.7623   -5.2543 H   0  0  0  0  0  0  0  0  0  0  0  0
    7.3902   10.0745   -3.2654 H   0  0  0  0  0  0  0  0  0  0  0  0
   21.0238   17.4101   -4.9406 H   0  0  0  0  0  0  0  0  0  0  0  0
   13.2222   17.1430   -5.8549 H   0  0  0  0  0  0  0  0  0  0  0  0
   27.2724   22.3662  -10.6065 H   0  0  0  0  0  0  0  0  0  0  0  0
    3.5452   11.6901   -5.0604 H   0  0  0  0  0  0  0  0  0  0  0  0
   21.4998   13.2859   -6.3197 H   0  0  0  0  0  0  0  0  0  0  0  0
    8.1883   15.0850   -3.5912 H   0  0  0  0  0  0  0  0  0  0  0  0
   29.4020   25.0283  -11.3993 H   0  0  0  0  0  0  0  0  0  0  0  0
   24.4907   22.0534   -5.1007 C   0  0  0  0  0  0  0  0  0  0  0  0
   32.0956   30.1225  -11.4321 H   0  0  0  0  0  0  0  0  0  0  0  0
   36.9302   30.4652  -12.0135 H   0  0  0  0  0  0  0  0  0  0  0  0
   36.8577   32.9135  -11.8288 H   0  0  0  0  0  0  0  0  0  0  0  0
   36.1365   30.1488   -7.7722 H   0  0  0  0  0  0  0  0  0  0  0  0
   17.8438   13.6823   -8.5421 H   0  0  0  0  0  0  0  0  0  0  0  0
   29.8020   29.8413   -5.6930 H   0  0  0  0  0  0  0  0  0  0  0  0
   33.7498   28.0827   -7.2290 H   0  0  0  0  0  0  0  0  0  0  0  0
   30.4111   30.0674   -6.5711 C   0  0  0  0  0  0  0  0  0  0  0  0
   38.5092   25.9568  -10.8358 H   0  0  0  0  0  0  0  0  0  0  0  0
   25.3671   20.1280   -5.5291 H   0  0  0  0  0  0  0  0  0  0  0  0
   25.0042   23.1492  -10.1261 H   0  0  0  0  0  0  0  0  0  0  0  0
   23.8705   22.5040   -8.0413 H   0  0  0  0  0  0  0  0  0  0  0  0
   30.1364   23.8075   -6.6525 H   0  0  0  0  0  0  0  0  0  0  0  0
   38.3717   28.3709  -11.2856 H   0  0  0  0  0  0  0  0  0  0  0  0
   38.1369   23.7365  -10.7773 H   0  0  0  0  0  0  0  0  0  0  0  0
   23.9975   21.7091   -4.1894 H   0  0  0  0  0  0  0  0  0  0  0  0
   -0.9612   15.7899   -1.9058 H   0  0  0  0  0  0  0  0  0  0  0  0
   36.4006   23.7722  -11.2161 H   0  0  0  0  0  0  0  0  0  0  0  0
   29.8796   27.8897   -8.4260 H   0  0  0  0  0  0  0  0  0  0  0  0
   29.5629   22.6659  -10.7781 H   0  0  0  0  0  0  0  0  0  0  0  0
   32.4723   29.6979  -10.5049 C   0  0  0  0  0  0  0  0  0  0  0  0
   32.1083   29.0609   -8.2040 C   0  0  0  0  0  0  0  0  0  0  0  0
   22.0454   19.6356   -8.4702 H   0  0  0  0  0  0  0  0  0  0  0  0
   25.4297   22.5351   -4.8152 H   0  0  0  0  0  0  0  0  0  0  0  0
   37.0044   22.5755  -10.0372 H   0  0  0  0  0  0  0  0  0  0  0  0
    3.9800   16.3864   -5.2654 H   0  0  0  0  0  0  0  0  0  0  0  0
   31.7229   28.4271   -6.1897 H   0  0  0  0  0  0  0  0  0  0  0  0
   36.7354   30.9167  -11.0435 C   0  0  0  0  0  0  0  0  0  0  0  0
   17.2857   17.7725   -7.0226 H   0  0  0  0  0  0  0  0  0  0  0  0
    5.6411   13.6471   -6.8019 H   0  0  0  0  0  0  0  0  0  0  0  0
   31.6489   29.6425   -9.3866 C   0  0  0  0  0  0  0  0  0  0  0  0
   29.7527   30.4587   -7.3495 H   0  0  0  0  0  0  0  0  0  0  0  0
   31.1258   30.8474   -6.2984 H   0  0  0  0  0  0  0  0  0  0  0  0
   23.8537   22.8054   -5.5723 H   0  0  0  0  0  0  0  0  0  0  0  0
   -1.4371   14.1280   -1.4912 H   0  0  0  0  0  0  0  0  0  0  0  0
   13.4047   15.3670   -3.3341 H   0  0  0  0  0  0  0  0  0  0  0  0
   20.9214   15.0874   -4.8283 H   0  0  0  0  0  0  0  0  0  0  0  0
   34.3484   29.1766  -11.3729 H   0  0  0  0  0  0  0  0  0  0  0  0
   -0.9738   13.3401   -3.6982 H   0  0  0  0  0  0  0  0  0  0  0  0
   36.2816   30.7420   -8.6718 C   0  0  0  0  0  0  0  0  0  0  0  0
   13.5472   14.3881   -3.7976 C   0  0  0  0  0  0  0  0  0  0  0  0
   23.2564   20.3977   -7.4612 H   0  0  0  0  0  0  0  0  0  0  0  0
   30.2306   27.7540   -7.4920 N   0  0  0  0  0  0  0  0  0  0  0  0
   30.6289   30.0107   -9.4599 H   0  0  0  0  0  0  0  0  0  0  0  0
   34.9921   26.0274   -8.3497 H   0  0  0  0  0  0  0  0  0  0  0  0
    0.2439   14.5049   -1.7744 H   0  0  0  0  0  0  0  0  0  0  0  0
   19.0112   16.6907   -8.7239 H   0  0  0  0  0  0  0  0  0  0  0  0
    5.3592   10.3558   -3.6846 O   0  0  0  0  0  0  0  0  0  0  0  0
   30.7466   17.6313   -9.2029 O   0  0  0  0  0  0  0  0  0  0  0  0
   -0.2261   16.8789   -4.6065 H   0  0  0  0  0  0  0  0  0  0  0  0
   36.2269   32.1378   -8.5764 C   0  0  0  0  0  0  0  0  0  0  0  0
   12.9016   13.6601   -3.3046 H   0  0  0  0  0  0  0  0  0  0  0  0
   20.2366   12.5651   -8.5350 O   0  0  0  0  0  0  0  0  0  0  0  0
   18.5273   14.0738   -7.7927 C   0  0  0  0  0  0  0  0  0  0  0  0
    7.6253   13.3453   -8.1504 H   0  0  0  0  0  0  0  0  0  0  0  0
   29.6385   26.7869   -9.7285 H   0  0  0  0  0  0  0  0  0  0  0  0
   15.0538   18.6247   -6.5727 H   0  0  0  0  0  0  0  0  0  0  0  0
   15.8945   13.7821   -6.1080 H   0  0  0  0  0  0  0  0  0  0  0  0
   31.1537   28.8022   -7.0455 C   0  0  2  0  0  0  0  0  0  0  0  0
   35.9446   32.7942   -7.2534 C   0  0  0  0  0  0  0  0  0  0  0  0
   35.7571   32.1527   -6.2364 O   0  0  0  0  0  0  0  0  0  0  0  0
   29.6698   17.1157  -10.9120 H   0  0  0  0  0  0  0  0  0  0  0  0
   14.5829   14.0861   -3.6170 H   0  0  0  0  0  0  0  0  0  0  0  0
   36.8530   24.5196   -9.3257 O   0  0  0  0  0  0  0  0  0  0  0  0
   27.3725   20.3412   -6.7874 H   0  0  0  0  0  0  0  0  0  0  0  0
   36.6928   32.3026  -10.9446 C   0  0  0  0  0  0  0  0  0  0  0  0
   36.4318   32.9108   -9.7228 C   0  0  0  0  0  0  0  0  0  0  0  0
  1105  1  0  0  0  0
  3108  1  0  0  0  0
  4113  1  0  0  0  0
  5114  1  0  0  0  0
  6134  1  0  0  0  0
  7121  1  0  0  0  0
  8181  1  0  0  0  0
  8172  1  0  0  0  0
  8210  1  0  0  0  0
  8266  1  0  0  0  0
  9136  1  0  0  0  0
  9 41  1  0  0  0  0
  9137  1  0  0  0  0
  9203  1  0  0  0  0
 10125  1  0  0  0  0
 12128  1  0  0  0  0
 13131  1  0  0  0  0
 14102  1  0  0  0  0
 15100  1  0  0  0  0
 16138  1  0  0  0  0
 16133  2  0  0  0  0
 16146  1  0  0  0  0
 17111  1  0  0  0  0
 18 91  1  0  0  0  0
 19123  1  0  0  0  0
 20145  2  0  0  0  0
 20140  1  0  0  0  0
 20151  1  0  0  0  0
 21 33  2  0  0  0  0
 21193  1  0  0  0  0
 21230  1  0  0  0  0
 22 42  2  0  0  0  0
 22 29  1  0  0  0  0
 22164  1  0  0  0  0
 23 35  2  0  0  0  0
 23 61  1  0  0  0  0
 23276  1  0  0  0  0
 24 87  1  0  0  0  0
 24 25  2  0  0  0  0
 24211  1  0  0  0  0
 25161  1  0  0  0  0
 25110  1  0  0  0  0
 26 93  1  0  0  0  0
 27 59  1  0  0  0  0
 27196  2  0  0  0  0
 27209  1  0  0  0  0
 28164  2  0  0  0  0
 28163  1  0  0  0  0
 28273  1  0  0  0  0
 29 80  2  0  0  0  0
 29160  1  0  0  0  0
 30157  2  0  0  0  0
 30 35  1  0  0  0  0
 30212  1  0  0  0  0
 31228  1  1  0  0  0
 31149  1  0  0  0  0
 31193  1  0  0  0  0
 31218  1  0  0  0  0
 32169  1  0  0  0  0
 32139  2  0  0  0  0
 32146  1  0  0  0  0
 33142  1  0  0  0  0
 33229  1  0  0  0  0
 34140  2  0  0  0  0
 34141  1  0  0  0  0
 34217  1  0  0  0  0
 35155  1  0  0  0  0
 36 73  1  0  0  0  0
 37 47  1  0  0  0  0
 38 67  1  0  0  0  0
 39 67  1  0  0  0  0
 40 64  1  0  0  0  0
 40 77  2  0  0  0  0
 40267  1  0  0  0  0
 41278  1  0  0  0  0
 42162  1  0  0  0  0
 42216  1  0  0  0  0
 43195  2  0  0  0  0
 43 52  1  0  0  0  0
 43207  1  0  0  0  0
 44104  1  0  0  0  0
 45 46  1  0  0  0  0
 45 84  1  0  0  0  0
 46 83  2  0  0  0  0
 46131  1  0  0  0  0
 47 53  1  0  0  0  0
 47 54  1  0  0  0  0
 47 84  1  0  0  0  0
 48 65  1  0  0  0  0
 48 81  1  0  0  0  0
 48200  1  0  0  0  0
 49156  1  0  0  0  0
 49 87  2  0  0  0  0
 49241  1  0  0  0  0
 50 96  1  0  0  0  0
 51119  1  0  0  0  0
 52 59  2  0  0  0  0
 52173  1  0  0  0  0
 55 73  1  0  0  0  0
 56 67  1  0  0  0  0
 57 73  1  0  0  0  0
 58 90  1  0  0  0  0
 59244  1  0  0  0  0
 60130  1  0  0  0  0
 60186  1  0  0  0  0
 60187  1  0  0  0  0
 60188  1  0  0  0  0
 61 72  2  0  0  0  0
 61 88  1  0  0  0  0
 62107  1  0  0  0  0
 62189  1  0  0  0  0
 62190  1  0  0  0  0
 62191  1  0  0  0  0
 63153  2  0  0  0  0
 63109  1  0  0  0  0
 63215  1  0  0  0  0
 64154  2  0  0  0  0
 64205  1  0  0  0  0
 65208  1  0  0  0  0
 65195  1  0  0  0  0
 65257  1  6  0  0  0
 66159  2  0  0  0  0
 66149  1  0  0  0  0
 66 87  1  0  0  0  0
 67 84  1  0  0  0  0
 68106  1  0  0  0  0
 69112  1  0  0  0  0
 69170  1  0  0  0  0
 70167  1  0  0  0  0
 70168  1  0  0  0  0
 70267  1  0  0  0  0
 70280  1  0  0  0  0
 71127  1  0  0  0  0
 72157  1  0  0  0  0
 72247  1  0  0  0  0
 73 84  1  0  0  0  0
 74 92  1  0  0  0  0
 74171  1  0  0  0  0
 75160  1  0  0  0  0
 76120  1  0  0  0  0
 77143  1  0  0  0  0
 77135  1  0  0  0  0
 78101  1  0  0  0  0
 79 98  1  0  0  0  0
 81 82  2  0  0  0  0
 81103  1  0  0  0  0
 85184  1  0  0  0  0
 85158  2  0  0  0  0
 85266  1  0  0  0  0
 86146  2  0  0  0  0
 86147  1  0  0  0  0
 86263  1  0  0  0  0
 88110  1  0  0  0  0
 88272  2  0  0  0  0
 89 90  2  0  0  0  0
 89 94  1  0  0  0  0
 89 95  1  0  0  0  0
 90 91  1  0  0  0  0
 91 92  2  0  0  0  0
 92 93  1  0  0  0  0
 93 94  2  0  0  0  0
 94 97  1  0  0  0  0
 95102  2  0  0  0  0
 95106  1  0  0  0  0
 96 97  2  0  0  0  0
 96101  1  0  0  0  0
 97 98  1  0  0  0  0
 98 99  2  0  0  0  0
 99100  1  0  0  0  0
 99107  1  0  0  0  0
100101  2  0  0  0  0
102103  1  0  0  0  0
103104  2  0  0  0  0
104105  1  0  0  0  0
105106  2  0  0  0  0
107  2  1  6  0  0  0
107108  1  0  0  0  0
108129  1  0  0  0  0
109110  2  0  0  0  0
109255  1  0  0  0  0
111112  2  0  0  0  0
111116  1  0  0  0  0
112113  1  0  0  0  0
113114  2  0  0  0  0
114115  1  0  0  0  0
115116  2  0  0  0  0
115118  1  0  0  0  0
116124  1  0  0  0  0
117124  2  0  0  0  0
117128  1  0  0  0  0
117197  1  0  0  0  0
118119  2  0  0  0  0
118123  1  0  0  0  0
119120  1  0  0  0  0
120121  2  0  0  0  0
121122  1  0  0  0  0
122129  1  0  0  0  0
122123  2  0  0  0  0
124125  1  0  0  0  0
125126  2  0  0  0  0
126127  1  0  0  0  0
126130  1  0  0  0  0
127128  2  0  0  0  0
129132  2  0  0  0  0
130 11  1  6  0  0  0
130131  1  0  0  0  0
133239  1  0  0  0  0
133256  1  0  0  0  0
134165  1  0  0  0  0
134166  1  0  0  0  0
134271  1  0  0  0  0
138225  1  0  0  0  0
138240  2  0  0  0  0
139150  1  0  0  0  0
139232  1  0  0  0  0
140238  1  0  0  0  0
141144  2  0  0  0  0
141274  1  0  0  0  0
142192  2  0  0  0  0
142213  1  0  0  0  0
143192  1  0  0  0  0
143151  2  0  0  0  0
144152  1  0  0  0  0
144145  1  0  0  0  0
145231  1  0  0  0  0
147150  2  0  0  0  0
147282  1  0  0  0  0
148152  2  0  0  0  0
149260  1  0  0  0  0
150227  1  0  0  0  0
151154  1  0  0  0  0
152261  1  0  0  0  0
153272  1  0  0  0  0
153271  1  0  0  0  0
154206  1  0  0  0  0
155199  1  6  0  0  0
155160  1  0  0  0  0
155259  1  0  0  0  0
156161  2  0  0  0  0
156198  1  0  0  0  0
157275  1  0  0  0  0
158173  1  0  0  0  0
158214  1  0  0  0  0
161265  1  0  0  0  0
162163  2  0  0  0  0
162183  1  0  0  0  0
163248  1  0  0  0  0
164204  1  0  0  0  0
169246  1  0  0  0  0
169258  2  0  0  0  0
170174  1  0  0  0  0
170175  1  0  0  0  0
170176  1  0  0  0  0
171177  1  0  0  0  0
171178  1  0  0  0  0
171179  1  0  0  0  0
173183  2  0  0  0  0
180285  1  0  0  0  0
182233  1  0  0  0  0
182236  1  0  0  0  0
182243  1  0  0  0  0
182282  1  0  0  0  0
183185  1  0  0  0  0
184185  2  0  0  0  0
184201  1  0  0  0  0
185202  1  0  0  0  0
192194  1  0  0  0  0
193194  2  0  0  0  0
194283  1  0  0  0  0
195196  1  0  0  0  0
196268  1  0  0  0  0
208235  1  0  0  0  0
208253  1  0  0  0  0
208264  1  0  0  0  0
218242  1  0  0  0  0
218252  1  0  0  0  0
218234  1  0  0  0  0
219239  1  0  0  0  0
220246  1  0  0  0  0
221284  1  0  0  0  0
222258  1  0  0  0  0
223272  1  0  0  0  0
224226  1  0  0  0  0
226277  1  0  0  0  0
226251  1  0  0  0  0
226250  1  0  0  0  0
237261  1  0  0  0  0
239249  2  0  0  0  0
240277  1  0  0  0  0
240249  1  0  0  0  0
246284  2  0  0  0  0
249262  1  0  0  0  0
254259  1  0  0  0  0
258269  1  0  0  0  0
259281  1  0  0  0  0
259270  1  0  0  0  0
261277  1  0  0  0  0
269278  1  0  0  0  0
269285  2  0  0  0  0
277245  1  1  0  0  0
278279  2  0  0  0  0
284285  1  0  0  0  0
M  END
$$$$
