mom_trimer_mbuild_bonds.pdb
 OpenBabel05092316543D

153161  0  0  1  0  0  0  0  0999 V2000
   -2.6430    5.5430    0.8940 C   0  0  0  0  0  0  0  0  0  0  0  0
   -1.5590    4.6680    0.5990 O   0  0  0  0  0  0  0  0  0  0  0  0
   -1.6780    3.2780    0.4590 C   0  0  0  0  0  0  0  0  0  0  0  0
   -2.9060    2.6090    0.5990 C   0  0  0  0  0  0  0  0  0  0  0  0
   -2.9730    1.2220    0.4580 C   0  0  0  0  0  0  0  0  0  0  0  0
   -1.8200    0.4730    0.1750 C   0  0  0  0  0  0  0  0  0  0  0  0
   -1.9310   -1.0040    0.1020 C   0  0  0  0  0  0  0  0  0  0  0  0
   -2.8550   -1.6010   -0.7730 C   0  0  0  0  0  0  0  0  0  0  0  0
   -2.9600   -3.0010   -0.8520 C   0  0  0  0  0  0  0  0  0  0  0  0
   -3.9180   -3.6420   -1.7730 C   0  0  0  0  0  0  0  0  0  0  0  0
   -4.6700   -2.9530   -2.5130 O   0  0  0  0  0  0  0  0  0  0  0  0
   -2.1380   -3.8000   -0.0440 C   0  0  0  0  0  0  0  0  0  0  0  0
   -1.2260   -3.2100    0.8350 C   0  0  0  0  0  0  0  0  0  0  0  0
   -1.1250   -1.8200    0.9130 C   0  0  0  0  0  0  0  0  0  0  0  0
   -0.5810    1.1440    0.0090 C   0  0  0  0  0  0  0  0  0  0  0  0
    0.6580    0.4230   -0.3680 C   0  0  0  0  0  0  0  0  0  0  0  0
    1.8130    0.5440    0.4220 C   0  0  0  0  0  0  0  0  0  0  0  0
    2.9920   -0.1440    0.0820 C   0  0  0  0  0  0  0  0  0  0  0  0
    4.2210   -0.0240    0.9590 C   0  0  1  0  0  0  0  0  0  0  0  0
    4.5540   -1.3630    1.6300 C   0  0  0  0  0  0  0  0  0  0  0  0
    5.3560    0.4790    0.1790 N   0  0  0  0  0  0  0  0  0  0  0  0
    2.9990   -0.9570   -1.0670 C   0  0  0  0  0  0  0  0  0  0  0  0
    1.8560   -1.0700   -1.8610 C   0  0  0  0  0  0  0  0  0  0  0  0
    0.6920   -0.3810   -1.5180 C   0  0  0  0  0  0  0  0  0  0  0  0
   -0.5280    2.5390    0.1660 C   0  0  0  0  0  0  0  0  0  0  0  0
   -3.0910    5.2770    1.8750 H   0  0  0  0  0  0  0  0  0  0  0  0
   -3.4100    5.4840    0.0940 H   0  0  0  0  0  0  0  0  0  0  0  0
   -2.2640    6.5840    0.9470 H   0  0  0  0  0  0  0  0  0  0  0  0
   -3.8140    3.1510    0.8250 H   0  0  0  0  0  0  0  0  0  0  0  0
   -3.9270    0.7280    0.5920 H   0  0  0  0  0  0  0  0  0  0  0  0
   -3.4780   -0.9730   -1.3980 H   0  0  0  0  0  0  0  0  0  0  0  0
   -2.2030   -4.8800   -0.0910 H   0  0  0  0  0  0  0  0  0  0  0  0
   -0.5990   -3.8330    1.4590 H   0  0  0  0  0  0  0  0  0  0  0  0
   -0.4200   -1.3790    1.6070 H   0  0  0  0  0  0  0  0  0  0  0  0
    1.7860    1.1620    1.3120 H   0  0  0  0  0  0  0  0  0  0  0  0
    4.0200    0.7080    1.7730 H   0  0  0  0  0  0  0  0  0  0  0  0
    5.4210   -1.2390    2.3130 H   0  0  0  0  0  0  0  0  0  0  0  0
    3.6860   -1.7150    2.2280 H   0  0  0  0  0  0  0  0  0  0  0  0
    4.8070   -2.1380    0.8750 H   0  0  0  0  0  0  0  0  0  0  0  0
    6.1320    0.7170    0.8390 H   0  0  0  0  0  0  0  0  0  0  0  0
    3.8870   -1.5070   -1.3490 H   0  0  0  0  0  0  0  0  0  0  0  0
    1.8720   -1.6940   -2.7460 H   0  0  0  0  0  0  0  0  0  0  0  0
   -0.1830   -0.4730   -2.1490 H   0  0  0  0  0  0  0  0  0  0  0  0
    0.4130    3.0620    0.0400 H   0  0  0  0  0  0  0  0  0  0  0  0
   11.1720   -6.2170   -6.5100 C   0  0  0  0  0  0  0  0  0  0  0  0
   11.3560   -6.1730   -5.0990 O   0  0  0  0  0  0  0  0  0  0  0  0
   10.7970   -5.2000   -4.2570 C   0  0  0  0  0  0  0  0  0  0  0  0
    9.9850   -4.1610   -4.7420 C   0  0  0  0  0  0  0  0  0  0  0  0
    9.4560   -3.2120   -3.8660 C   0  0  0  0  0  0  0  0  0  0  0  0
    9.7250   -3.2780   -2.4890 C   0  0  0  0  0  0  0  0  0  0  0  0
    9.1970   -2.2070   -1.6090 C   0  0  0  0  0  0  0  0  0  0  0  0
    7.8220   -1.9180   -1.5960 C   0  0  0  0  0  0  0  0  0  0  0  0
    7.3130   -0.9090   -0.7580 C   0  0  0  0  0  0  0  0  0  0  0  0
    5.8720   -0.6010   -0.7260 C   0  0  0  0  0  0  0  0  0  0  0  0
    5.0550   -1.2310   -1.4490 O   0  0  0  0  0  0  0  0  0  0  0  0
    8.1930   -0.1880    0.0620 C   0  0  0  0  0  0  0  0  0  0  0  0
    9.5620   -0.4650    0.0440 C   0  0  0  0  0  0  0  0  0  0  0  0
   10.0640   -1.4660   -0.7900 C   0  0  0  0  0  0  0  0  0  0  0  0
   10.5240   -4.3380   -1.9900 C   0  0  0  0  0  0  0  0  0  0  0  0
   10.7820   -4.5110   -0.5400 C   0  0  0  0  0  0  0  0  0  0  0  0
   12.1000   -4.5950   -0.0620 C   0  0  0  0  0  0  0  0  0  0  0  0
   12.3570   -4.7470    1.3120 C   0  0  0  0  0  0  0  0  0  0  0  0
   13.7860   -4.8100    1.8140 C   0  0  1  0  0  0  0  0  0  0  0  0
   14.1220   -3.5860    2.6770 C   0  0  0  0  0  0  0  0  0  0  0  0
   14.0140   -6.0580    2.5470 N   0  0  0  0  0  0  0  0  0  0  0  0
   11.2720   -4.8180    2.2050 C   0  0  0  0  0  0  0  0  0  0  0  0
    9.9610   -4.7480    1.7320 C   0  0  0  0  0  0  0  0  0  0  0  0
    9.7140   -4.6000    0.3660 C   0  0  0  0  0  0  0  0  0  0  0  0
   11.0590   -5.2780   -2.8860 C   0  0  0  0  0  0  0  0  0  0  0  0
   11.5700   -5.2910   -6.9760 H   0  0  0  0  0  0  0  0  0  0  0  0
   10.0950   -6.3350   -6.7520 H   0  0  0  0  0  0  0  0  0  0  0  0
   11.7250   -7.0870   -6.9210 H   0  0  0  0  0  0  0  0  0  0  0  0
    9.7620   -4.0720   -5.7970 H   0  0  0  0  0  0  0  0  0  0  0  0
    8.8510   -2.4080   -4.2670 H   0  0  0  0  0  0  0  0  0  0  0  0
    7.1520   -2.4890   -2.2270 H   0  0  0  0  0  0  0  0  0  0  0  0
    7.8220    0.5920    0.7150 H   0  0  0  0  0  0  0  0  0  0  0  0
   10.2360    0.0990    0.6750 H   0  0  0  0  0  0  0  0  0  0  0  0
   11.1300   -1.6610   -0.8000 H   0  0  0  0  0  0  0  0  0  0  0  0
   12.9240   -4.5220   -0.7620 H   0  0  0  0  0  0  0  0  0  0  0  0
   14.4810   -4.7960    0.9440 H   0  0  0  0  0  0  0  0  0  0  0  0
   15.1880   -3.6210    2.9850 H   0  0  0  0  0  0  0  0  0  0  0  0
   13.9570   -2.6540    2.0950 H   0  0  0  0  0  0  0  0  0  0  0  0
   13.4900   -3.5550    3.5900 H   0  0  0  0  0  0  0  0  0  0  0  0
   15.0400   -6.1540    2.7270 H   0  0  0  0  0  0  0  0  0  0  0  0
   11.4390   -4.9250    3.2690 H   0  0  0  0  0  0  0  0  0  0  0  0
    9.1320   -4.8080    2.4260 H   0  0  0  0  0  0  0  0  0  0  0  0
    8.6900   -4.5550    0.0150 H   0  0  0  0  0  0  0  0  0  0  0  0
   11.6690   -6.0930   -2.5160 H   0  0  0  0  0  0  0  0  0  0  0  0
   10.6020   -7.2870   13.0470 C   0  0  0  0  0  0  0  0  0  0  0  0
   11.7880   -6.5840   12.6890 O   0  0  0  0  0  0  0  0  0  0  0  0
   12.3560   -6.5910   11.4070 C   0  0  0  0  0  0  0  0  0  0  0  0
   11.7920   -7.3050   10.3370 C   0  0  0  0  0  0  0  0  0  0  0  0
   12.3980   -7.2860    9.0800 C   0  0  0  0  0  0  0  0  0  0  0  0
   13.5780   -6.5560    8.8620 C   0  0  0  0  0  0  0  0  0  0  0  0
   14.2200   -6.6230    7.5270 C   0  0  0  0  0  0  0  0  0  0  0  0
   13.4890   -6.2930    6.3730 C   0  0  0  0  0  0  0  0  0  0  0  0
   14.0940   -6.3470    5.1050 C   0  0  0  0  0  0  0  0  0  0  0  0
   13.3430   -5.9940    3.8870 C   0  0  0  0  0  0  0  0  0  0  0  0
   12.1370   -5.6350    3.9470 O   0  0  0  0  0  0  0  0  0  0  0  0
   15.4370   -6.7410    5.0000 C   0  0  0  0  0  0  0  0  0  0  0  0
   16.1630   -7.0810    6.1440 C   0  0  0  0  0  0  0  0  0  0  0  0
   15.5590   -7.0270    7.4010 C   0  0  0  0  0  0  0  0  0  0  0  0
   14.1390   -5.8130    9.9320 C   0  0  0  0  0  0  0  0  0  0  0  0
   15.3370   -4.9590    9.7510 C   0  0  0  0  0  0  0  0  0  0  0  0
   16.4610   -5.1360   10.5740 C   0  0  0  0  0  0  0  0  0  0  0  0
   17.6080   -4.3400   10.4050 C   0  0  0  0  0  0  0  0  0  0  0  0
   18.8220   -4.5610   11.2840 C   0  0  1  0  0  0  0  0  0  0  0  0
   20.0100   -5.0840   10.4650 C   0  0  0  0  0  0  0  0  0  0  0  0
   19.1670   -3.3270   11.9960 N   0  0  0  0  0  0  0  0  0  0  0  0
   17.6140   -3.3580    9.3960 C   0  0  0  0  0  0  0  0  0  0  0  0
   16.4940   -3.1720    8.5850 C   0  0  0  0  0  0  0  0  0  0  0  0
   15.3580   -3.9630    8.7620 C   0  0  0  0  0  0  0  0  0  0  0  0
   13.5240   -5.8520   11.1950 C   0  0  0  0  0  0  0  0  0  0  0  0
   10.7440   -8.3780   12.8920 H   0  0  0  0  0  0  0  0  0  0  0  0
    9.7450   -6.9230   12.4430 H   0  0  0  0  0  0  0  0  0  0  0  0
   10.3840   -7.1060   14.1200 H   0  0  0  0  0  0  0  0  0  0  0  0
   10.8890   -7.8850   10.4670 H   0  0  0  0  0  0  0  0  0  0  0  0
   11.9560   -7.8630    8.2760 H   0  0  0  0  0  0  0  0  0  0  0  0
   12.4560   -5.9810    6.4690 H   0  0  0  0  0  0  0  0  0  0  0  0
   15.9210   -6.7890    4.0330 H   0  0  0  0  0  0  0  0  0  0  0  0
   17.1970   -7.3890    6.0550 H   0  0  0  0  0  0  0  0  0  0  0  0
   16.1340   -7.3040    8.2760 H   0  0  0  0  0  0  0  0  0  0  0  0
   16.4460   -5.9070   11.3350 H   0  0  0  0  0  0  0  0  0  0  0  0
   18.5850   -5.3370   12.0470 H   0  0  0  0  0  0  0  0  0  0  0  0
   20.8690   -5.2950   11.1360 H   0  0  0  0  0  0  0  0  0  0  0  0
   19.7300   -6.0270    9.9480 H   0  0  0  0  0  0  0  0  0  0  0  0
   20.3300   -4.3400    9.7040 H   0  0  0  0  0  0  0  0  0  0  0  0
   19.8890   -3.5530   12.7190 H   0  0  0  0  0  0  0  0  0  0  0  0
   18.4860   -2.7370    9.2350 H   0  0  0  0  0  0  0  0  0  0  0  0
   16.5060   -2.4110    7.8150 H   0  0  0  0  0  0  0  0  0  0  0  0
   14.4950   -3.8000    8.1280 H   0  0  0  0  0  0  0  0  0  0  0  0
   13.9430   -5.2870   12.0190 H   0  0  0  0  0  0  0  0  0  0  0  0
   -5.3600   -5.4500   -1.6620 C   0  0  0  0  0  0  0  0  0  0  0  0
   -4.0080   -5.1380   -1.8390 O   0  0  0  0  0  0  0  0  0  0  0  0
   -5.7120   -5.0850   -0.6730 H   0  0  0  0  0  0  0  0  0  0  0  0
   -5.4870   -6.5510   -1.7020 H   0  0  0  0  0  0  0  0  0  0  0  0
   -5.9690   -4.9900   -2.4700 H   0  0  0  0  0  0  0  0  0  0  0  0
   23.2820   -2.3100    9.6420 C   0  0  0  0  0  0  0  0  0  0  0  0
   21.8760   -1.7030    9.7630 C   0  0  0  0  0  0  0  0  0  0  0  0
   21.9980   -0.2750   10.3280 C   0  0  0  0  0  0  0  0  0  0  0  0
   21.2230   -1.6790    8.3670 C   0  0  0  0  0  0  0  0  0  0  0  0
   21.1270   -2.5390   10.6570 O   0  0  0  0  0  0  0  0  0  0  0  0
   19.7940   -2.3490   11.0480 C   0  0  0  0  0  0  0  0  0  0  0  0
   19.1090   -1.3800   10.6250 O   0  0  0  0  0  0  0  0  0  0  0  0
   23.9200   -1.7080    8.9590 H   0  0  0  0  0  0  0  0  0  0  0  0
   23.7710   -2.3500   10.6390 H   0  0  0  0  0  0  0  0  0  0  0  0
   23.2210   -3.3470    9.2460 H   0  0  0  0  0  0  0  0  0  0  0  0
   22.4010   -0.3060   11.3630 H   0  0  0  0  0  0  0  0  0  0  0  0
   21.0140    0.2360   10.3520 H   0  0  0  0  0  0  0  0  0  0  0  0
   22.6800    0.3380    9.7000 H   0  0  0  0  0  0  0  0  0  0  0  0
   21.0710   -2.7160    7.9980 H   0  0  0  0  0  0  0  0  0  0  0  0
   20.2380   -1.1690    8.3900 H   0  0  0  0  0  0  0  0  0  0  0  0
   21.8680   -1.1360    7.6430 H   0  0  0  0  0  0  0  0  0  0  0  0
  1  2  1  0  0  0  0
  1 26  1  0  0  0  0
  1 27  1  0  0  0  0
  1 28  1  0  0  0  0
  2  3  1  0  0  0  0
  3  4  2  0  0  0  0
  3 25  1  0  0  0  0
  4  5  1  0  0  0  0
  4 29  1  0  0  0  0
  5  6  2  0  0  0  0
  5 30  1  0  0  0  0
  6  7  1  0  0  0  0
  6 15  1  0  0  0  0
  7  8  2  0  0  0  0
  7 14  1  0  0  0  0
  8  9  1  0  0  0  0
  8 31  1  0  0  0  0
  9 10  1  0  0  0  0
  9 12  2  0  0  0  0
 10 11  2  0  0  0  0
 10134  1  0  0  0  0
 12 13  1  0  0  0  0
 12 32  1  0  0  0  0
 13 14  2  0  0  0  0
 13 33  1  0  0  0  0
 14 34  1  0  0  0  0
 15 16  1  0  0  0  0
 15 25  2  0  0  0  0
 16 17  2  0  0  0  0
 16 24  1  0  0  0  0
 17 18  1  0  0  0  0
 17 35  1  0  0  0  0
 18 19  1  0  0  0  0
 18 22  2  0  0  0  0
 19 20  1  0  0  0  0
 19 21  1  0  0  0  0
 19 36  1  1  0  0  0
 20 37  1  0  0  0  0
 20 38  1  0  0  0  0
 20 39  1  0  0  0  0
 21 40  1  0  0  0  0
 21 54  1  0  0  0  0
 22 23  1  0  0  0  0
 22 41  1  0  0  0  0
 23 24  2  0  0  0  0
 23 42  1  0  0  0  0
 24 43  1  0  0  0  0
 25 44  1  0  0  0  0
 45 46  1  0  0  0  0
 45 70  1  0  0  0  0
 45 71  1  0  0  0  0
 45 72  1  0  0  0  0
 46 47  1  0  0  0  0
 47 48  2  0  0  0  0
 47 69  1  0  0  0  0
 48 49  1  0  0  0  0
 48 73  1  0  0  0  0
 49 50  2  0  0  0  0
 49 74  1  0  0  0  0
 50 51  1  0  0  0  0
 50 59  1  0  0  0  0
 51 52  2  0  0  0  0
 51 58  1  0  0  0  0
 52 53  1  0  0  0  0
 52 75  1  0  0  0  0
 53 54  1  0  0  0  0
 53 56  2  0  0  0  0
 54 55  2  0  0  0  0
 56 57  1  0  0  0  0
 56 76  1  0  0  0  0
 57 58  2  0  0  0  0
 57 77  1  0  0  0  0
 58 78  1  0  0  0  0
 59 60  1  0  0  0  0
 59 69  2  0  0  0  0
 60 61  2  0  0  0  0
 60 68  1  0  0  0  0
 61 62  1  0  0  0  0
 61 79  1  0  0  0  0
 62 63  1  0  0  0  0
 62 66  2  0  0  0  0
 63 64  1  0  0  0  0
 63 65  1  0  0  0  0
 63 80  1  6  0  0  0
 64 81  1  0  0  0  0
 64 82  1  0  0  0  0
 64 83  1  0  0  0  0
 65 84  1  0  0  0  0
 65 98  1  0  0  0  0
 66 67  1  0  0  0  0
 66 85  1  0  0  0  0
 67 68  2  0  0  0  0
 67 86  1  0  0  0  0
 68 87  1  0  0  0  0
 69 88  1  0  0  0  0
 89 90  1  0  0  0  0
 89114  1  0  0  0  0
 89115  1  0  0  0  0
 89116  1  0  0  0  0
 90 91  1  0  0  0  0
 91 92  2  0  0  0  0
 91113  1  0  0  0  0
 92 93  1  0  0  0  0
 92117  1  0  0  0  0
 93 94  2  0  0  0  0
 93118  1  0  0  0  0
 94 95  1  0  0  0  0
 94103  1  0  0  0  0
 95 96  2  0  0  0  0
 95102  1  0  0  0  0
 96 97  1  0  0  0  0
 96119  1  0  0  0  0
 97 98  1  0  0  0  0
 97100  2  0  0  0  0
 98 99  2  0  0  0  0
100101  1  0  0  0  0
100120  1  0  0  0  0
101102  2  0  0  0  0
101121  1  0  0  0  0
102122  1  0  0  0  0
103104  1  0  0  0  0
103113  2  0  0  0  0
104105  2  0  0  0  0
104112  1  0  0  0  0
105106  1  0  0  0  0
105123  1  0  0  0  0
106107  1  0  0  0  0
106110  2  0  0  0  0
107108  1  0  0  0  0
107109  1  0  0  0  0
107124  1  1  0  0  0
108125  1  0  0  0  0
108126  1  0  0  0  0
108127  1  0  0  0  0
109128  1  0  0  0  0
109143  1  0  0  0  0
110111  1  0  0  0  0
110129  1  0  0  0  0
111112  2  0  0  0  0
111130  1  0  0  0  0
112131  1  0  0  0  0
113132  1  0  0  0  0
133134  1  0  0  0  0
133135  1  0  0  0  0
133136  1  0  0  0  0
133137  1  0  0  0  0
138139  1  0  0  0  0
138145  1  0  0  0  0
138146  1  0  0  0  0
138147  1  0  0  0  0
139140  1  0  0  0  0
139141  1  0  0  0  0
139142  1  0  0  0  0
140148  1  0  0  0  0
140149  1  0  0  0  0
140150  1  0  0  0  0
141151  1  0  0  0  0
141152  1  0  0  0  0
141153  1  0  0  0  0
142143  1  0  0  0  0
143144  2  0  0  0  0
M  END
