
 OpenBabel06292215313D

197208  0  0  1  0  0  0  0  0999 V2000
  -17.5893   -0.7881   -3.6519 H   0  0  0  0  0  0  0  0  0  0  0  0
  -26.5194    1.0693    1.5055 H   0  0  0  0  0  0  0  0  0  0  0  0
  -25.3625    3.0735    0.0640 H   0  0  0  0  0  0  0  0  0  0  0  0
  -27.9705    7.9815   -7.4264 O   0  0  0  0  0  0  0  0  0  0  0  0
  -27.9255    6.9358   -5.1054 H   0  0  0  0  0  0  0  0  0  0  0  0
  -26.1418    3.1985   -6.2724 H   0  0  0  0  0  0  0  0  0  0  0  0
  -25.4467    4.5907   -0.4340 H   0  0  0  0  0  0  0  0  0  0  0  0
  -12.2264   -6.3646   -0.8492 O   0  0  0  0  0  0  0  0  0  0  0  0
  -10.1164   -5.2203   -0.0480 H   0  0  0  0  0  0  0  0  0  0  0  0
  -23.3472    4.0787  -11.1672 H   0  0  0  0  0  0  0  0  0  0  0  0
  -23.8156    0.6925  -12.0376 H   0  0  0  0  0  0  0  0  0  0  0  0
  -26.7528    1.8567   -8.3228 H   0  0  0  0  0  0  0  0  0  0  0  0
  -22.5376    0.6964   -9.3982 H   0  0  0  0  0  0  0  0  0  0  0  0
  -18.8900   -0.9068    1.1372 H   0  0  0  0  0  0  0  0  0  0  0  0
  -24.4904    0.5083   -1.5462 H   0  0  0  0  0  0  0  0  0  0  0  0
  -24.1462   -3.0609    1.8838 H   0  0  0  0  0  0  0  0  0  0  0  0
  -21.2449   -1.3601   -0.0738 H   0  0  0  0  0  0  0  0  0  0  0  0
  -20.8679   -6.5492   -0.6252 O   0  0  0  0  0  0  0  0  0  0  0  0
  -25.7126    6.7143   -4.0712 H   0  0  0  0  0  0  0  0  0  0  0  0
  -10.2373   -1.4459   -3.0610 H   0  0  0  0  0  0  0  0  0  0  0  0
  -14.4439    2.7732   -0.9458 C   0  0  0  0  0  0  0  0  0  0  0  0
   -5.9517   -1.8802   -1.9481 H   0  0  0  0  0  0  0  0  0  0  0  0
    0.3784   -3.6943   -0.6542 H   0  0  0  0  0  0  0  0  0  0  0  0
    2.3701   -2.3965   -1.1871 H   0  0  0  0  0  0  0  0  0  0  0  0
   -1.3706   -0.1592    1.1547 H   0  0  0  0  0  0  0  0  0  0  0  0
   -3.1431   -0.9195    0.5042 H   0  0  0  0  0  0  0  0  0  0  0  0
   -5.3243   -0.8604    2.2041 H   0  0  0  0  0  0  0  0  0  0  0  0
   -6.5351    1.2378    1.8653 H   0  0  0  0  0  0  0  0  0  0  0  0
   -7.2693    2.9205   -1.7647 C   0  0  0  0  0  0  0  0  0  0  0  0
   -3.5739   -6.0585   -0.2708 O   0  0  0  0  0  0  0  0  0  0  0  0
  -14.9970    2.6044    1.1061 H   0  0  0  0  0  0  0  0  0  0  0  0
  -13.9954   -2.1958   -1.3762 H   0  0  0  0  0  0  0  0  0  0  0  0
  -14.6908    0.1119   -1.7336 H   0  0  0  0  0  0  0  0  0  0  0  0
  -10.0544   -1.0560    1.8814 H   0  0  0  0  0  0  0  0  0  0  0  0
   -1.2758   -4.7706    0.1738 H   0  0  0  0  0  0  0  0  0  0  0  0
  -24.4217   -3.4059  -10.4279 H   0  0  0  0  0  0  0  0  0  0  0  0
  -23.6129   -2.3563   -6.8821 H   0  0  0  0  0  0  0  0  0  0  0  0
  -20.8540   -3.4986   -9.2099 H   0  0  0  0  0  0  0  0  0  0  0  0
  -21.9061   -3.8282  -10.5931 H   0  0  0  0  0  0  0  0  0  0  0  0
   -9.5000    2.1896   -1.1054 H   0  0  0  0  0  0  0  0  0  0  0  0
  -10.5793   -3.4348   -1.7039 H   0  0  0  0  0  0  0  0  0  0  0  0
   -6.1181   -1.2299   -1.0923 C   0  0  0  0  0  0  0  0  0  0  0  0
   -6.9028    0.9034   -0.2304 C   0  0  0  0  0  0  0  0  0  0  0  0
  -17.1284    1.1308   -2.2273 H   0  0  0  0  0  0  0  0  0  0  0  0
  -22.6564   -1.5259   -9.1975 O   0  0  0  0  0  0  0  0  0  0  0  0
  -22.7058   -1.0108  -10.4469 C   0  0  0  0  0  0  0  0  0  0  0  0
  -22.8644   -3.0093   -7.3385 C   0  0  0  0  0  0  0  0  0  0  0  0
   -7.1948    2.9441    0.3688 H   0  0  0  0  0  0  0  0  0  0  0  0
    0.4110   -2.6549   -0.3432 C   0  0  0  0  0  0  0  0  0  0  0  0
  -24.7697    5.4325   -9.7375 H   0  0  0  0  0  0  0  0  0  0  0  0
  -27.4748    2.7632   -3.7962 H   0  0  0  0  0  0  0  0  0  0  0  0
   -6.7821   -0.0175   -1.2785 C   0  0  0  0  0  0  0  0  0  0  0  0
  -23.0495   -4.0302   -6.9958 H   0  0  0  0  0  0  0  0  0  0  0  0
  -21.8813   -2.6993   -6.9764 H   0  0  0  0  0  0  0  0  0  0  0  0
  -25.0907   -2.5739   -9.0170 H   0  0  0  0  0  0  0  0  0  0  0  0
  -21.9787   -4.8649   -9.1656 H   0  0  0  0  0  0  0  0  0  0  0  0
  -24.6460   -4.2837   -8.9191 H   0  0  0  0  0  0  0  0  0  0  0  0
  -18.8030   -4.8062   -0.7314 H   0  0  0  0  0  0  0  0  0  0  0  0
  -14.2657   -1.5945    2.8986 H   0  0  0  0  0  0  0  0  0  0  0  0
  -22.1055    1.9638  -12.0881 C   0  0  0  0  0  0  0  0  0  0  0  0
   -0.5650   -0.6766    0.6446 C   0  0  0  0  0  0  0  0  0  0  0  0
  -24.5085    1.8031    1.8023 C   0  0  0  0  0  0  0  0  0  0  0  0
  -16.8477    2.4015   -1.0269 H   0  0  0  0  0  0  0  0  0  0  0  0
   -9.0368    2.1909   -0.2113 N   0  0  0  0  0  0  0  0  0  0  0  0
   -7.1711    0.2144   -2.2658 H   0  0  0  0  0  0  0  0  0  0  0  0
  -12.0049   -2.1140    2.2163 H   0  0  0  0  0  0  0  0  0  0  0  0
  -21.8519   -3.8335   -9.5028 C   0  0  0  0  0  0  0  0  0  0  0  0
  -18.7220   -2.7765   -2.7541 H   0  0  0  0  0  0  0  0  0  0  0  0
  -27.0136    6.2180   -9.2200 H   0  0  0  0  0  0  0  0  0  0  0  0
  -14.2842   -4.6509   -0.3787 H   0  0  0  0  0  0  0  0  0  0  0  0
  -25.3379    0.5129   -9.7927 H   0  0  0  0  0  0  0  0  0  0  0  0
    0.5285    0.0839    0.2256 C   0  0  0  0  0  0  0  0  0  0  0  0
  -24.3593   -3.3180   -9.3418 C   0  0  0  0  0  0  0  0  0  0  0  0
  -23.0772   -5.2345   -0.3018 H   0  0  0  0  0  0  0  0  0  0  0  0
  -24.9832    6.5557   -1.7473 H   0  0  0  0  0  0  0  0  0  0  0  0
  -21.4684    1.2211  -12.5742 H   0  0  0  0  0  0  0  0  0  0  0  0
   -9.8684    0.7273   -2.0340 H   0  0  0  0  0  0  0  0  0  0  0  0
  -23.1464   -1.4591   -2.0037 H   0  0  0  0  0  0  0  0  0  0  0  0
  -25.5450   -1.0962    2.3059 H   0  0  0  0  0  0  0  0  0  0  0  0
   -7.5816    2.2700   -0.4005 C   0  0  2  0  0  0  0  0  0  0  0  0
    0.4944    1.5807    0.3795 C   0  0  0  0  0  0  0  0  0  0  0  0
   -0.4192    2.1535    0.9448 O   0  0  0  0  0  0  0  0  0  0  0  0
  -22.9828   -1.5977  -11.4747 O   0  0  0  0  0  0  0  0  0  0  0  0
  -22.9339   -2.9207   -8.8797 C   0  0  0  0  0  0  0  0  0  0  0  0
   -5.5447   -4.3727   -0.1815 H   0  0  0  0  0  0  0  0  0  0  0  0
  -14.9506    0.7215    2.5138 H   0  0  0  0  0  0  0  0  0  0  0  0
    1.5434   -1.9150   -0.6712 C   0  0  0  0  0  0  0  0  0  0  0  0
    1.5900   -0.5487   -0.4223 C   0  0  0  0  0  0  0  0  0  0  0  0
  -19.8904   -2.9843   -0.3535 C   0  0  0  0  0  0  0  0  0  0  0  0
  -19.7750   -4.3726   -0.5149 C   0  0  0  0  0  0  0  0  0  0  0  0
  -20.9248   -5.1779   -0.4430 C   0  0  0  0  0  0  0  0  0  0  0  0
  -22.1927   -4.6031   -0.2779 C   0  0  0  0  0  0  0  0  0  0  0  0
  -22.3088   -3.2114   -0.1492 C   0  0  0  0  0  0  0  0  0  0  0  0
  -21.1500   -2.4425   -0.1409 C   0  0  0  0  0  0  0  0  0  0  0  0
  -18.8504   -2.0002   -0.7413 C   0  0  0  0  0  0  0  0  0  0  0  0
  -23.5722   -2.4264   -0.1075 C   0  0  0  0  0  0  0  0  0  0  0  0
  -24.2991   -2.3384    1.0858 C   0  0  0  0  0  0  0  0  0  0  0  0
  -25.0806   -1.2119    1.3296 C   0  0  0  0  0  0  0  0  0  0  0  0
  -25.1249   -0.1580    0.4130 C   0  0  0  0  0  0  0  0  0  0  0  0
  -24.4964   -0.3030   -0.8235 C   0  0  0  0  0  0  0  0  0  0  0  0
  -23.7355   -1.4338   -1.0893 C   0  0  0  0  0  0  0  0  0  0  0  0
  -18.5702   -0.8995    0.0968 C   0  0  0  0  0  0  0  0  0  0  0  0
  -17.9245    0.2275   -0.4164 C   0  0  0  0  0  0  0  0  0  0  0  0
  -17.5955    0.2593   -1.7792 C   0  0  0  0  0  0  0  0  0  0  0  0
  -17.8420   -0.8363   -2.5956 C   0  0  0  0  0  0  0  0  0  0  0  0
  -18.4557   -1.9669   -2.0786 C   0  0  0  0  0  0  0  0  0  0  0  0
  -25.6150    1.1985    0.9054 C   0  0  2  0  0  0  0  0  0  0  0  0
  -25.8793    2.2272   -0.1024 N   0  0  0  0  0  0  0  0  0  0  0  0
  -17.5320    1.3501    0.5054 C   0  0  0  0  0  0  0  0  0  0  0  0
  -17.6738    1.2956    1.7134 O   0  0  0  0  0  0  0  0  0  0  0  0
  -26.5940    4.5678   -7.8826 C   0  0  0  0  0  0  0  0  0  0  0  0
  -27.0711    5.8517   -8.1990 C   0  0  0  0  0  0  0  0  0  0  0  0
  -27.5840    6.6746   -7.1948 C   0  0  0  0  0  0  0  0  0  0  0  0
  -27.6033    6.2397   -5.8766 C   0  0  0  0  0  0  0  0  0  0  0  0
  -27.0785    4.9881   -5.5231 C   0  0  0  0  0  0  0  0  0  0  0  0
  -26.6169    4.1395   -6.5412 C   0  0  0  0  0  0  0  0  0  0  0  0
  -25.8703    3.7514   -8.9092 C   0  0  0  0  0  0  0  0  0  0  0  0
  -26.6948    4.7752   -4.0918 C   0  0  0  0  0  0  0  0  0  0  0  0
  -26.9420    3.5996   -3.3479 C   0  0  0  0  0  0  0  0  0  0  0  0
  -26.4704    3.4963   -2.0274 C   0  0  0  0  0  0  0  0  0  0  0  0
  -25.7954    4.5922   -1.4615 C   0  0  0  0  0  0  0  0  0  0  0  0
  -25.5364    5.7342   -2.1951 C   0  0  0  0  0  0  0  0  0  0  0  0
  -25.9662    5.8222   -3.5039 C   0  0  0  0  0  0  0  0  0  0  0  0
  -24.9256    4.3567   -9.7568 C   0  0  0  0  0  0  0  0  0  0  0  0
  -24.1056    3.5788  -10.5715 C   0  0  0  0  0  0  0  0  0  0  0  0
  -24.2208    2.1858  -10.5733 C   0  0  0  0  0  0  0  0  0  0  0  0
  -25.2200    1.5945   -9.7951 C   0  0  0  0  0  0  0  0  0  0  0  0
  -26.0266    2.3585   -8.9577 C   0  0  0  0  0  0  0  0  0  0  0  0
  -26.6296    2.2234   -1.2265 C   0  0  0  0  0  0  0  0  0  0  0  0
  -23.2407    1.2681  -11.3064 C   0  0  2  0  0  0  0  0  0  0  0  0
  -22.6854    0.3278  -10.3248 N   0  0  0  0  0  0  0  0  0  0  0  0
  -27.2456    1.2455   -1.6016 O   0  0  0  0  0  0  0  0  0  0  0  0
  -13.2635   -3.3135    0.9923 C   0  0  0  0  0  0  0  0  0  0  0  0
  -13.3694   -4.4538    0.1732 C   0  0  0  0  0  0  0  0  0  0  0  0
  -12.2423   -5.2651   -0.0094 C   0  0  0  0  0  0  0  0  0  0  0  0
  -11.0040   -4.7879    0.4081 C   0  0  0  0  0  0  0  0  0  0  0  0
  -10.9471   -3.5205    1.0067 C   0  0  0  0  0  0  0  0  0  0  0  0
  -12.0753   -3.0687    1.7006 C   0  0  0  0  0  0  0  0  0  0  0  0
  -14.1166   -2.0982    0.7923 C   0  0  0  0  0  0  0  0  0  0  0  0
  -10.3160   -2.4118    0.2108 C   0  0  0  0  0  0  0  0  0  0  0  0
  -10.0686   -1.1576    0.7983 C   0  0  0  0  0  0  0  0  0  0  0  0
   -9.8909   -0.0201    0.0080 C   0  0  0  0  0  0  0  0  0  0  0  0
   -9.9726   -0.1360   -1.3846 C   0  0  0  0  0  0  0  0  0  0  0  0
  -10.1721   -1.3719   -1.9800 C   0  0  0  0  0  0  0  0  0  0  0  0
  -10.3380   -2.5042   -1.1961 C   0  0  0  0  0  0  0  0  0  0  0  0
  -14.4018   -1.2503    1.8764 C   0  0  0  0  0  0  0  0  0  0  0  0
  -14.7595    0.0762    1.6584 C   0  0  0  0  0  0  0  0  0  0  0  0
  -14.8395    0.5985    0.3712 C   0  0  0  0  0  0  0  0  0  0  0  0
  -14.6179   -0.2597   -0.7158 C   0  0  0  0  0  0  0  0  0  0  0  0
  -14.2590   -1.5896   -0.5119 C   0  0  0  0  0  0  0  0  0  0  0  0
   -9.5344    1.2882    0.6592 C   0  0  0  0  0  0  0  0  0  0  0  0
  -15.2302    2.0681    0.1809 C   0  0  2  0  0  0  0  0  0  0  0  0
  -16.6712    2.2251   -0.0515 N   0  0  0  0  0  0  0  0  0  0  0  0
   -9.3385    1.4025    1.8522 O   0  0  0  0  0  0  0  0  0  0  0  0
   -2.0134   -2.7494    0.3880 C   0  0  0  0  0  0  0  0  0  0  0  0
   -2.1559   -4.1387    0.2068 C   0  0  0  0  0  0  0  0  0  0  0  0
   -3.4237   -4.7108    0.0122 C   0  0  0  0  0  0  0  0  0  0  0  0
   -4.5777   -3.9172    0.0192 C   0  0  0  0  0  0  0  0  0  0  0  0
   -4.4652   -2.5412    0.2600 C   0  0  0  0  0  0  0  0  0  0  0  0
   -3.1916   -1.9988    0.4327 C   0  0  0  0  0  0  0  0  0  0  0  0
   -0.6813   -2.0400    0.2963 C   0  0  0  0  0  0  0  0  0  0  0  0
   -5.5683   -1.5424    0.1603 C   0  0  0  0  0  0  0  0  0  0  0  0
   -5.7604   -0.6545    1.2294 C   0  0  0  0  0  0  0  0  0  0  0  0
   -6.4225    0.5509    1.0300 C   0  0  0  0  0  0  0  0  0  0  0  0
    1.4356    2.2370   -0.3382 O   0  0  0  0  0  0  0  0  0  0  0  0
    0.3015    3.9299   -0.8011 H   0  0  0  0  0  0  0  0  0  0  0  0
    1.3238    3.6715   -0.5075 C   0  0  0  0  0  0  0  0  0  0  0  0
    1.5791    4.1701    0.4309 H   0  0  0  0  0  0  0  0  0  0  0  0
    2.0126    3.9854   -1.2956 H   0  0  0  0  0  0  0  0  0  0  0  0
   -2.4591   -6.9415   -0.5480 C   0  0  0  0  0  0  0  0  0  0  0  0
  -13.2724   -6.6691   -1.7959 C   0  0  0  0  0  0  0  0  0  0  0  0
  -19.6300   -7.2943   -0.7095 C   0  0  0  0  0  0  0  0  0  0  0  0
  -27.4402    8.7739   -8.5122 C   0  0  0  0  0  0  0  0  0  0  0  0
  -27.7197    9.8186   -8.3510 H   0  0  0  0  0  0  0  0  0  0  0  0
  -26.3496    8.6896   -8.5296 H   0  0  0  0  0  0  0  0  0  0  0  0
  -27.8620    8.4235   -9.4571 H   0  0  0  0  0  0  0  0  0  0  0  0
  -19.8655   -8.3523   -0.8515 H   0  0  0  0  0  0  0  0  0  0  0  0
  -19.0422   -6.9388   -1.5602 H   0  0  0  0  0  0  0  0  0  0  0  0
  -19.0650   -7.1677    0.2182 H   0  0  0  0  0  0  0  0  0  0  0  0
  -12.9547   -7.5233   -2.4003 H   0  0  0  0  0  0  0  0  0  0  0  0
  -14.1885   -6.9220   -1.2571 H   0  0  0  0  0  0  0  0  0  0  0  0
  -13.4378   -5.8062   -2.4469 H   0  0  0  0  0  0  0  0  0  0  0  0
   -2.8432   -7.9195   -0.8498 H   0  0  0  0  0  0  0  0  0  0  0  0
   -1.8555   -6.5249   -1.3597 H   0  0  0  0  0  0  0  0  0  0  0  0
   -1.8483   -7.0532    0.3522 H   0  0  0  0  0  0  0  0  0  0  0  0
   -6.1953    2.9076   -1.9624 H   0  0  0  0  0  0  0  0  0  0  0  0
   -7.7750    2.3900   -2.5757 H   0  0  0  0  0  0  0  0  0  0  0  0
   -7.6104    3.9576   -1.7807 H   0  0  0  0  0  0  0  0  0  0  0  0
  -13.3695    2.6119   -0.8313 H   0  0  0  0  0  0  0  0  0  0  0  0
  -14.7453    2.3975   -1.9269 H   0  0  0  0  0  0  0  0  0  0  0  0
  -14.6345    3.8487   -0.9293 H   0  0  0  0  0  0  0  0  0  0  0  0
  -24.2314    1.1305    2.6157 H   0  0  0  0  0  0  0  0  0  0  0  0
  -23.6086    1.9922    1.2066 H   0  0  0  0  0  0  0  0  0  0  0  0
  -24.8263    2.7548    2.2340 H   0  0  0  0  0  0  0  0  0  0  0  0
  -22.5123    2.6170  -12.8633 H   0  0  0  0  0  0  0  0  0  0  0  0
  -21.4803    2.5598  -11.4185 H   0  0  0  0  0  0  0  0  0  0  0  0
    2.4574    0.0190   -0.7489 H   0  0  0  0  0  0  0  0  0  0  0  0
  1105  1  0  0  0  0
  3108  1  0  0  0  0
  4113  1  0  0  0  0
  4173  1  0  0  0  0
  5114  1  0  0  0  0
  6116  1  0  0  0  0
  8135  1  0  0  0  0
  8171  1  0  0  0  0
  9136  1  0  0  0  0
 10125  1  0  0  0  0
 12128  1  0  0  0  0
 13131  1  0  0  0  0
 14102  1  0  0  0  0
 15100  1  0  0  0  0
 16 97  1  0  0  0  0
 17 94  1  0  0  0  0
 18 91  1  0  0  0  0
 18172  1  0  0  0  0
 19123  1  0  0  0  0
 20144  1  0  0  0  0
 21152  1  0  0  0  0
 21189  1  0  0  0  0
 21190  1  0  0  0  0
 21191  1  0  0  0  0
 22 42  1  0  0  0  0
 23 49  1  0  0  0  0
 24 87  1  0  0  0  0
 25 61  1  0  0  0  0
 26160  1  0  0  0  0
 27163  1  0  0  0  0
 28164  1  0  0  0  0
 29 80  1  0  0  0  0
 29186  1  0  0  0  0
 29187  1  0  0  0  0
 29188  1  0  0  0  0
 30157  1  0  0  0  0
 30170  1  0  0  0  0
 32150  1  0  0  0  0
 33149  1  0  0  0  0
 34141  1  0  0  0  0
 35156  1  0  0  0  0
 36 73  1  0  0  0  0
 37 47  1  0  0  0  0
 38 67  1  0  0  0  0
 39 67  1  0  0  0  0
 40 64  1  0  0  0  0
 41145  1  0  0  0  0
 42162  1  0  0  0  0
 42 52  2  0  0  0  0
 43 80  1  0  0  0  0
 43164  2  0  0  0  0
 43 52  1  0  0  0  0
 45 46  1  0  0  0  0
 45 84  1  0  0  0  0
 46 83  2  0  0  0  0
 46131  1  0  0  0  0
 47 53  1  0  0  0  0
 47 54  1  0  0  0  0
 47 84  1  0  0  0  0
 49161  1  0  0  0  0
 49 87  2  0  0  0  0
 50124  1  0  0  0  0
 51119  1  0  0  0  0
 52 65  1  0  0  0  0
 55 73  1  0  0  0  0
 56 67  1  0  0  0  0
 57 73  1  0  0  0  0
 58 90  1  0  0  0  0
 59146  1  0  0  0  0
 60130  1  0  0  0  0
 60195  1  0  0  0  0
 60196  1  0  0  0  0
 60 76  1  0  0  0  0
 61 72  1  0  0  0  0
 61161  2  0  0  0  0
 62107  1  0  0  0  0
 62192  1  0  0  0  0
 62193  1  0  0  0  0
 62194  1  0  0  0  0
 63153  1  0  0  0  0
 64151  1  0  0  0  0
 64 80  1  0  0  0  0
 66138  1  0  0  0  0
 67 84  1  0  0  0  0
 68106  1  0  0  0  0
 69112  1  0  0  0  0
 70134  1  0  0  0  0
 71127  1  0  0  0  0
 72 81  1  0  0  0  0
 72 88  2  0  0  0  0
 73 84  1  0  0  0  0
 74 92  1  0  0  0  0
 75122  1  0  0  0  0
 78101  1  0  0  0  0
 79 98  1  0  0  0  0
 80 48  1  1  0  0  0
 81 82  2  0  0  0  0
 81165  1  0  0  0  0
 85158  1  0  0  0  0
 86147  1  0  0  0  0
 87 88  1  0  0  0  0
 88197  1  0  0  0  0
 89 90  2  0  0  0  0
 89 94  1  0  0  0  0
 89 95  1  0  0  0  0
 90 91  1  0  0  0  0
 91 92  2  0  0  0  0
 92 93  1  0  0  0  0
 93 94  2  0  0  0  0
 93 96  1  0  0  0  0
 95102  2  0  0  0  0
 95106  1  0  0  0  0
 96 97  2  0  0  0  0
 96101  1  0  0  0  0
 97 98  1  0  0  0  0
 98 99  2  0  0  0  0
 99100  1  0  0  0  0
 99107  1  0  0  0  0
100101  2  0  0  0  0
102103  1  0  0  0  0
103109  1  0  0  0  0
103104  2  0  0  0  0
104105  1  0  0  0  0
104 44  1  0  0  0  0
105106  2  0  0  0  0
107  2  1  1  0  0  0
107108  1  0  0  0  0
108129  1  0  0  0  0
109110  2  0  0  0  0
109153  1  0  0  0  0
111112  2  0  0  0  0
111116  1  0  0  0  0
111117  1  0  0  0  0
112113  1  0  0  0  0
113114  2  0  0  0  0
114115  1  0  0  0  0
115116  2  0  0  0  0
115118  1  0  0  0  0
117124  2  0  0  0  0
117128  1  0  0  0  0
118119  2  0  0  0  0
118123  1  0  0  0  0
119120  1  0  0  0  0
120129  1  0  0  0  0
120121  2  0  0  0  0
121  7  1  0  0  0  0
121122  1  0  0  0  0
122123  2  0  0  0  0
124125  1  0  0  0  0
125126  2  0  0  0  0
126127  1  0  0  0  0
126130  1  0  0  0  0
127128  2  0  0  0  0
129132  2  0  0  0  0
130 11  1  6  0  0  0
130131  1  0  0  0  0
133134  2  0  0  0  0
133138  1  0  0  0  0
133139  1  0  0  0  0
134135  1  0  0  0  0
135136  2  0  0  0  0
136137  1  0  0  0  0
137138  2  0  0  0  0
137140  1  0  0  0  0
139146  2  0  0  0  0
139150  1  0  0  0  0
140141  2  0  0  0  0
140145  1  0  0  0  0
141142  1  0  0  0  0
142151  1  0  0  0  0
142143  2  0  0  0  0
143 77  1  0  0  0  0
143144  1  0  0  0  0
144145  2  0  0  0  0
146147  1  0  0  0  0
147148  2  0  0  0  0
148149  1  0  0  0  0
148152  1  0  0  0  0
149150  2  0  0  0  0
151154  2  0  0  0  0
152 31  1  1  0  0  0
152153  1  0  0  0  0
155160  1  0  0  0  0
155161  1  0  0  0  0
155156  2  0  0  0  0
156157  1  0  0  0  0
157158  2  0  0  0  0
158159  1  0  0  0  0
159160  2  0  0  0  0
159162  1  0  0  0  0
162163  2  0  0  0  0
163164  1  0  0  0  0
165167  1  0  0  0  0
166167  1  0  0  0  0
167168  1  0  0  0  0
167169  1  0  0  0  0
170183  1  0  0  0  0
170184  1  0  0  0  0
170185  1  0  0  0  0
171180  1  0  0  0  0
171181  1  0  0  0  0
171182  1  0  0  0  0
172177  1  0  0  0  0
172178  1  0  0  0  0
172179  1  0  0  0  0
173176  1  0  0  0  0
173174  1  0  0  0  0
173175  1  0  0  0  0
M  END
$$$$
