
 OpenBabel06152216233D

169180  0  0  0  0  0  0  0  0999 V2000
  -17.2400    0.1520   -2.0710 H   0  0  0  0  0  0  0  0  0  0  0  0
  -25.2350    1.4810    2.0450 H   0  0  0  0  0  0  0  0  0  0  0  0
  -25.0760    3.3550    0.0820 H   0  0  0  0  0  0  0  0  0  0  0  0
  -29.5940   -6.2000    0.0650 H   0  0  0  0  0  0  0  0  0  0  0  0
  -27.8560   -4.4950   -0.3550 H   0  0  0  0  0  0  0  0  0  0  0  0
  -30.8960   -1.5240   -0.7490 H   0  0  0  0  0  0  0  0  0  0  0  0
  -18.4460    0.2780    2.0660 H   0  0  0  0  0  0  0  0  0  0  0  0
  -12.2550   -5.9380   -1.3390 H   0  0  0  0  0  0  0  0  0  0  0  0
  -10.2360   -4.9730   -0.3210 H   0  0  0  0  0  0  0  0  0  0  0  0
  -35.7390   -3.5100    1.9070 H   0  0  0  0  0  0  0  0  0  0  0  0
  -37.4810   -1.0550    0.5170 H   0  0  0  0  0  0  0  0  0  0  0  0
  -32.8610   -1.2650   -1.4420 H   0  0  0  0  0  0  0  0  0  0  0  0
  -35.3440    0.5360    1.8290 H   0  0  0  0  0  0  0  0  0  0  0  0
  -19.3970   -1.9550    1.8510 H   0  0  0  0  0  0  0  0  0  0  0  0
  -23.9740    0.8400   -1.4700 H   0  0  0  0  0  0  0  0  0  0  0  0
  -23.8260   -2.9730    1.6870 H   0  0  0  0  0  0  0  0  0  0  0  0
  -21.1790   -1.4780   -0.3930 H   0  0  0  0  0  0  0  0  0  0  0  0
  -21.0400   -6.3750   -0.7180 H   0  0  0  0  0  0  0  0  0  0  0  0
  -28.0870   -1.6900    1.4060 H   0  0  0  0  0  0  0  0  0  0  0  0
   -9.5270   -0.3750   -1.6260 H   0  0  0  0  0  0  0  0  0  0  0  0
  -14.3650    2.4260   -1.3020 H   0  0  0  0  0  0  0  0  0  0  0  0
   -5.6340   -2.1590   -2.2540 H   0  0  0  0  0  0  0  0  0  0  0  0
   -0.3190   -2.6530   -1.1460 H   0  0  0  0  0  0  0  0  0  0  0  0
    0.9660   -0.5980   -1.3990 H   0  0  0  0  0  0  0  0  0  0  0  0
   -1.7200   -1.2770    2.7050 H   0  0  0  0  0  0  0  0  0  0  0  0
   -3.5050   -1.3100    0.9750 H   0  0  0  0  0  0  0  0  0  0  0  0
   -5.8920   -1.2300    1.9610 H   0  0  0  0  0  0  0  0  0  0  0  0
   -6.8350    0.9590    1.4100 H   0  0  0  0  0  0  0  0  0  0  0  0
   -7.0400    2.3450   -2.0460 H   0  0  0  0  0  0  0  0  0  0  0  0
   -3.4310   -5.9460   -0.6580 H   0  0  0  0  0  0  0  0  0  0  0  0
  -14.7220    2.6610    0.4210 H   0  0  0  0  0  0  0  0  0  0  0  0
  -13.8150   -2.2470   -1.8590 H   0  0  0  0  0  0  0  0  0  0  0  0
  -14.2160    0.1320   -2.2560 H   0  0  0  0  0  0  0  0  0  0  0  0
  -10.7250   -1.7810    2.9660 H   0  0  0  0  0  0  0  0  0  0  0  0
   -1.3300   -4.8930    0.0970 H   0  0  0  0  0  0  0  0  0  0  0  0
  -37.5630    3.0060   -1.5130 H   0  0  0  0  0  0  0  0  0  0  0  0
  -34.0620    3.8500   -0.3360 H   0  0  0  0  0  0  0  0  0  0  0  0
  -37.0500    4.7010    1.8130 H   0  0  0  0  0  0  0  0  0  0  0  0
  -38.2680    4.0190    0.7270 H   0  0  0  0  0  0  0  0  0  0  0  0
   -9.1520    1.3700   -1.7350 H   0  0  0  0  0  0  0  0  0  0  0  0
  -10.1940   -2.6530   -1.2420 H   0  0  0  0  0  0  0  0  0  0  0  0
   -5.9620   -1.5160   -1.4410 C   0  0  0  0  0  0  0  0  0  0  0  0
   -6.7680    0.6510   -0.7240 C   0  0  0  0  0  0  0  0  0  0  0  0
  -10.0630    0.5280    2.5520 H   0  0  0  0  0  0  0  0  0  0  0  0
  -35.9810    2.4450    0.8270 O   0  0  0  0  0  0  0  0  0  0  0  0
  -36.8870    1.4440    0.9130 C   0  0  0  0  0  0  0  0  0  0  0  0
  -34.8550    4.4380    0.1340 C   0  0  0  0  0  0  0  0  0  0  0  0
   -6.9880    2.7660   -0.3240 H   0  0  0  0  0  0  0  0  0  0  0  0
   -0.2830   -1.9530   -0.3140 C   0  0  0  0  0  0  0  0  0  0  0  0
  -33.6510   -4.5890    1.2350 H   0  0  0  0  0  0  0  0  0  0  0  0
  -28.6190   -1.4070   -2.8680 H   0  0  0  0  0  0  0  0  0  0  0  0
   -6.4880   -0.2610   -1.7420 C   0  0  0  0  0  0  0  0  0  0  0  0
  -34.9230    5.3950   -0.3900 H   0  0  0  0  0  0  0  0  0  0  0  0
  -34.5610    4.6350    1.1680 H   0  0  0  0  0  0  0  0  0  0  0  0
  -35.8590    2.6380   -1.8160 H   0  0  0  0  0  0  0  0  0  0  0  0
  -37.4060    5.4910    0.2700 H   0  0  0  0  0  0  0  0  0  0  0  0
  -36.4670    4.2880   -2.0070 H   0  0  0  0  0  0  0  0  0  0  0  0
  -18.9180   -5.1070   -0.5360 H   0  0  0  0  0  0  0  0  0  0  0  0
  -14.7760   -1.6850    2.3250 H   0  0  0  0  0  0  0  0  0  0  0  0
  -36.9770   -1.4550    2.1680 H   0  0  0  0  0  0  0  0  0  0  0  0
   -1.0630   -1.1840    1.8430 C   0  0  0  0  0  0  0  0  0  0  0  0
  -23.7660    2.0810    1.3050 H   0  0  0  0  0  0  0  0  0  0  0  0
  -16.5700    1.7840   -1.6860 H   0  0  0  0  0  0  0  0  0  0  0  0
   -8.8010    1.9470   -0.9880 N   0  0  0  0  0  0  0  0  0  0  0  0
   -6.6310    0.0240   -2.7810 H   0  0  0  0  0  0  0  0  0  0  0  0
  -12.6920   -2.5430    2.2280 H   0  0  0  0  0  0  0  0  0  0  0  0
  -37.3010    4.5230    0.7640 C   0  0  0  0  0  0  0  0  0  0  0  0
  -18.2200   -2.0650   -2.3000 H   0  0  0  0  0  0  0  0  0  0  0  0
  -31.9730   -5.6050    0.1250 H   0  0  0  0  0  0  0  0  0  0  0  0
  -14.3440   -4.6420   -1.1340 H   0  0  0  0  0  0  0  0  0  0  0  0
  -34.9110   -0.2100   -0.7220 H   0  0  0  0  0  0  0  0  0  0  0  0
   -0.3450   -0.0030    1.6780 C   0  0  0  0  0  0  0  0  0  0  0  0
  -36.5440    3.3810   -1.4030 C   0  0  0  0  0  0  0  0  0  0  0  0
  -23.2360   -5.2290   -0.6550 H   0  0  0  0  0  0  0  0  0  0  0  0
  -27.0250    0.4890    1.4110 H   0  0  0  0  0  0  0  0  0  0  0  0
  -27.4440    0.7450   -2.8640 H   0  0  0  0  0  0  0  0  0  0  0  0
   -0.4240    0.7710    2.4380 H   0  0  0  0  0  0  0  0  0  0  0  0
  -23.2200   -1.3340   -2.2600 H   0  0  0  0  0  0  0  0  0  0  0  0
  -24.6550   -0.8000    2.4480 H   0  0  0  0  0  0  0  0  0  0  0  0
   -7.3410    2.0230   -1.0460 C   0  0  0  0  0  0  0  0  0  0  0  0
    0.8990    1.6190    0.2230 C   0  0  0  0  0  0  0  0  0  0  0  0
    0.7790    2.5300    1.0210 O   0  0  0  0  0  0  0  0  0  0  0  0
  -37.9750    1.3920    0.3740 O   0  0  0  0  0  0  0  0  0  0  0  0
  -36.2000    3.6790    0.0790 C   0  0  0  0  0  0  0  0  0  0  0  0
   -5.5320   -4.6510   -0.7700 H   0  0  0  0  0  0  0  0  0  0  0  0
  -15.0980    0.7010    1.9090 H   0  0  0  0  0  0  0  0  0  0  0  0
    0.4280   -0.7650   -0.4700 C   0  0  0  0  0  0  0  0  0  0  0  0
    0.3520    0.2450    0.4940 C   0  0  0  0  0  0  0  0  0  0  0  0
  -19.9150   -3.1770   -0.4670 C   0  0  0  0  0  0  0  0  0  0  0  0
  -19.8660   -4.5750   -0.5660 C   0  0  0  0  0  0  0  0  0  0  0  0
  -21.0720   -5.2890   -0.6610 C   0  0  0  0  0  0  0  0  0  0  0  0
  -22.3200   -4.6430   -0.6370 C   0  0  0  0  0  0  0  0  0  0  0  0
  -22.3580   -3.2410   -0.5740 C   0  0  0  0  0  0  0  0  0  0  0  0
  -21.1530   -2.5620   -0.5020 C   0  0  0  0  0  0  0  0  0  0  0  0
  -18.8090   -2.2170   -0.2200 C   0  0  0  0  0  0  0  0  0  0  0  0
  -23.5240   -2.3430   -0.3650 C   0  0  0  0  0  0  0  0  0  0  0  0
  -23.9620   -2.1790    0.9580 C   0  0  0  0  0  0  0  0  0  0  0  0
  -24.3870   -0.9270    1.4020 C   0  0  0  0  0  0  0  0  0  0  0  0
  -24.3650    0.1750    0.5470 C   0  0  0  0  0  0  0  0  0  0  0  0
  -24.0120   -0.0050   -0.7900 C   0  0  0  0  0  0  0  0  0  0  0  0
  -23.6300   -1.2610   -1.2550 C   0  0  0  0  0  0  0  0  0  0  0  0
  -18.8550   -1.5340    1.0070 C   0  0  0  0  0  0  0  0  0  0  0  0
  -18.3570   -0.2430    1.1160 C   0  0  0  0  0  0  0  0  0  0  0  0
  -17.7870    0.3960    0.0140 C   0  0  0  0  0  0  0  0  0  0  0  0
  -17.6770   -0.3120   -1.1910 C   0  0  0  0  0  0  0  0  0  0  0  0
  -18.1910   -1.6010   -1.3170 C   0  0  0  0  0  0  0  0  0  0  0  0
  -24.7060    1.5630    1.0930 C   0  0  0  0  0  0  0  0  0  0  0  0
  -25.4870    2.4420    0.2000 N   0  0  0  0  0  0  0  0  0  0  0  0
  -17.2400    1.7890    0.1870 C   0  0  0  0  0  0  0  0  0  0  0  0
  -17.2490    2.3600    1.2610 O   0  0  0  0  0  0  0  0  0  0  0  0
  -31.6520   -3.5070   -0.3570 C   0  0  0  0  0  0  0  0  0  0  0  0
  -31.2480   -4.8340   -0.1180 C   0  0  0  0  0  0  0  0  0  0  0  0
  -29.8910   -5.1760   -0.1510 C   0  0  0  0  0  0  0  0  0  0  0  0
  -28.9070   -4.2180   -0.3990 C   0  0  0  0  0  0  0  0  0  0  0  0
  -29.2940   -2.8970   -0.6630 C   0  0  0  0  0  0  0  0  0  0  0  0
  -30.6470   -2.5750   -0.6390 C   0  0  0  0  0  0  0  0  0  0  0  0
  -33.0570   -3.0100   -0.1410 C   0  0  0  0  0  0  0  0  0  0  0  0
  -28.3560   -1.7500   -0.7420 C   0  0  0  0  0  0  0  0  0  0  0  0
  -28.2090   -1.0270   -1.9350 C   0  0  0  0  0  0  0  0  0  0  0  0
  -27.5680    0.2090   -1.9260 C   0  0  0  0  0  0  0  0  0  0  0  0
  -27.0740    0.7540   -0.7370 C   0  0  0  0  0  0  0  0  0  0  0  0
  -27.2960    0.0570    0.4560 C   0  0  0  0  0  0  0  0  0  0  0  0
  -27.9020   -1.1910    0.4570 C   0  0  0  0  0  0  0  0  0  0  0  0
  -33.9230   -3.6460    0.7680 C   0  0  0  0  0  0  0  0  0  0  0  0
  -35.1100   -3.0280    1.1620 C   0  0  0  0  0  0  0  0  0  0  0  0
  -35.4570   -1.7730    0.6650 C   0  0  0  0  0  0  0  0  0  0  0  0
  -34.6530   -1.1830   -0.3090 C   0  0  0  0  0  0  0  0  0  0  0  0
  -33.4740   -1.7920   -0.7150 C   0  0  0  0  0  0  0  0  0  0  0  0
  -26.3400    2.0720   -0.7900 C   0  0  0  0  0  0  0  0  0  0  0  0
  -36.6490   -1.0120    1.2240 C   0  0  0  0  0  0  0  0  0  0  0  0
  -36.2790    0.3860    1.4800 N   0  0  0  0  0  0  0  0  0  0  0  0
  -26.3950    2.7880   -1.7690 O   0  0  0  0  0  0  0  0  0  0  0  0
  -13.6280   -3.4770    0.5610 C   0  0  0  0  0  0  0  0  0  0  0  0
  -13.5500   -4.4950   -0.4060 C   0  0  0  0  0  0  0  0  0  0  0  0
  -12.3520   -5.1890   -0.5570 C   0  0  0  0  0  0  0  0  0  0  0  0
  -11.2120   -4.6940    0.0710 C   0  0  0  0  0  0  0  0  0  0  0  0
  -11.3480   -3.6480    1.0000 C   0  0  0  0  0  0  0  0  0  0  0  0
  -12.6160   -3.3660    1.5250 C   0  0  0  0  0  0  0  0  0  0  0  0
  -14.3070   -2.1740    0.2590 C   0  0  0  0  0  0  0  0  0  0  0  0
  -10.4740   -2.4300    0.9050 C   0  0  0  0  0  0  0  0  0  0  0  0
  -10.4140   -1.5030    1.9630 C   0  0  0  0  0  0  0  0  0  0  0  0
  -10.0670   -0.1750    1.7230 C   0  0  0  0  0  0  0  0  0  0  0  0
   -9.7630    0.2640    0.4340 C   0  0  0  0  0  0  0  0  0  0  0  0
   -9.7620   -0.6700   -0.6080 C   0  0  0  0  0  0  0  0  0  0  0  0
  -10.1040   -1.9970   -0.3800 C   0  0  0  0  0  0  0  0  0  0  0  0
  -14.6800   -1.3130    1.3080 C   0  0  0  0  0  0  0  0  0  0  0  0
  -14.8270    0.0510    1.0800 C   0  0  0  0  0  0  0  0  0  0  0  0
  -14.6470    0.5840   -0.1960 C   0  0  0  0  0  0  0  0  0  0  0  0
  -14.3400   -0.2690   -1.2530 C   0  0  0  0  0  0  0  0  0  0  0  0
  -14.1620   -1.6330   -1.0320 C   0  0  0  0  0  0  0  0  0  0  0  0
   -9.3570    1.6980    0.2160 C   0  0  0  0  0  0  0  0  0  0  0  0
  -14.9500    2.0520   -0.4590 C   0  0  0  0  0  0  0  0  0  0  0  0
  -16.3760    2.1690   -0.7750 N   0  0  0  0  0  0  0  0  0  0  0  0
   -9.2120    2.4810    1.1340 O   0  0  0  0  0  0  0  0  0  0  0  0
   -2.2850   -3.0320    0.6830 C   0  0  0  0  0  0  0  0  0  0  0  0
   -2.2660   -4.3470    0.1890 C   0  0  0  0  0  0  0  0  0  0  0  0
   -3.4560   -4.9350   -0.2580 C   0  0  0  0  0  0  0  0  0  0  0  0
   -4.6530   -4.2100   -0.3050 C   0  0  0  0  0  0  0  0  0  0  0  0
   -4.6800   -2.8960    0.1860 C   0  0  0  0  0  0  0  0  0  0  0  0
   -3.5050   -2.3640    0.7080 C   0  0  0  0  0  0  0  0  0  0  0  0
   -1.0900   -2.1460    0.8180 C   0  0  0  0  0  0  0  0  0  0  0  0
   -5.7310   -1.8800   -0.1040 C   0  0  0  0  0  0  0  0  0  0  0  0
   -6.0990   -0.9930    0.9200 C   0  0  0  0  0  0  0  0  0  0  0  0
   -6.5970    0.2660    0.6050 C   0  0  0  0  0  0  0  0  0  0  0  0
    1.3800    1.8070   -1.0280 O   0  0  0  0  0  0  0  0  0  0  0  0
    0.7220    3.7320   -1.4730 H   0  0  0  0  0  0  0  0  0  0  0  0
    1.6520    3.1550   -1.4820 C   0  0  0  0  0  0  0  0  0  0  0  0
    2.3850    3.6250   -0.8210 H   0  0  0  0  0  0  0  0  0  0  0  0
    2.0440    3.1140   -2.5010 H   0  0  0  0  0  0  0  0  0  0  0  0
  1105  1  0  0  0  0
  2107  1  0  0  0  0
  3108  1  0  0  0  0
  4113  1  0  0  0  0
  5114  1  0  0  0  0
  6116  1  0  0  0  0
  7103  1  0  0  0  0
  8135  1  0  0  0  0
  9136  1  0  0  0  0
 10125  1  0  0  0  0
 11130  1  0  0  0  0
 12128  1  0  0  0  0
 13131  1  0  0  0  0
 14102  1  0  0  0  0
 15100  1  0  0  0  0
 16 97  1  0  0  0  0
 17 94  1  0  0  0  0
 18 91  1  0  0  0  0
 19123  1  0  0  0  0
 20144  1  0  0  0  0
 21152  1  0  0  0  0
 22 42  1  0  0  0  0
 23 49  1  0  0  0  0
 24 87  1  0  0  0  0
 25 61  1  0  0  0  0
 26160  1  0  0  0  0
 27163  1  0  0  0  0
 28164  1  0  0  0  0
 29 80  1  0  0  0  0
 30157  1  0  0  0  0
 31152  1  0  0  0  0
 32150  1  0  0  0  0
 33149  1  0  0  0  0
 34141  1  0  0  0  0
 35156  1  0  0  0  0
 36 73  1  0  0  0  0
 37 47  1  0  0  0  0
 38 67  1  0  0  0  0
 39 67  1  0  0  0  0
 40 64  1  0  0  0  0
 41145  1  0  0  0  0
 42162  1  0  0  0  0
 42 52  2  0  0  0  0
 43 80  1  0  0  0  0
 43164  2  0  0  0  0
 43 52  1  0  0  0  0
 44142  1  0  0  0  0
 45 46  1  0  0  0  0
 45 84  1  0  0  0  0
 46 83  2  0  0  0  0
 46131  1  0  0  0  0
 47 53  1  0  0  0  0
 47 54  1  0  0  0  0
 47 84  1  0  0  0  0
 48 80  1  0  0  0  0
 49161  1  0  0  0  0
 49 87  2  0  0  0  0
 50124  1  0  0  0  0
 51119  1  0  0  0  0
 52 65  1  0  0  0  0
 55 73  1  0  0  0  0
 56 67  1  0  0  0  0
 57 73  1  0  0  0  0
 58 90  1  0  0  0  0
 59146  1  0  0  0  0
 60130  1  0  0  0  0
 61 72  1  0  0  0  0
 61161  2  0  0  0  0
 62107  1  0  0  0  0
 63153  1  0  0  0  0
 64151  1  0  0  0  0
 64 80  1  0  0  0  0
 66138  1  0  0  0  0
 67 84  1  0  0  0  0
 68106  1  0  0  0  0
 69112  1  0  0  0  0
 70134  1  0  0  0  0
 71127  1  0  0  0  0
 72 77  1  0  0  0  0
 72 88  2  0  0  0  0
 73 84  1  0  0  0  0
 74 92  1  0  0  0  0
 75122  1  0  0  0  0
 76120  1  0  0  0  0
 78101  1  0  0  0  0
 79 98  1  0  0  0  0
 81 88  1  0  0  0  0
 81 82  2  0  0  0  0
 81165  1  0  0  0  0
 85158  1  0  0  0  0
 86147  1  0  0  0  0
 87 88  1  0  0  0  0
 89 90  2  0  0  0  0
 89 94  1  0  0  0  0
 89 95  1  0  0  0  0
 90 91  1  0  0  0  0
 91 92  2  0  0  0  0
 92 93  1  0  0  0  0
 93 94  2  0  0  0  0
 93 96  1  0  0  0  0
 95102  2  0  0  0  0
 95106  1  0  0  0  0
 96 97  2  0  0  0  0
 96101  1  0  0  0  0
 97 98  1  0  0  0  0
 98 99  2  0  0  0  0
 99100  1  0  0  0  0
 99107  1  0  0  0  0
100101  2  0  0  0  0
102103  1  0  0  0  0
103104  2  0  0  0  0
104105  1  0  0  0  0
104109  1  0  0  0  0
105106  2  0  0  0  0
107108  1  0  0  0  0
108129  1  0  0  0  0
109110  2  0  0  0  0
109153  1  0  0  0  0
111112  2  0  0  0  0
111116  1  0  0  0  0
111117  1  0  0  0  0
112113  1  0  0  0  0
113114  2  0  0  0  0
114115  1  0  0  0  0
115116  2  0  0  0  0
115118  1  0  0  0  0
117124  2  0  0  0  0
117128  1  0  0  0  0
118119  2  0  0  0  0
118123  1  0  0  0  0
119120  1  0  0  0  0
120121  2  0  0  0  0
121122  1  0  0  0  0
121129  1  0  0  0  0
122123  2  0  0  0  0
124125  1  0  0  0  0
125126  2  0  0  0  0
126127  1  0  0  0  0
126130  1  0  0  0  0
127128  2  0  0  0  0
129132  2  0  0  0  0
130131  1  0  0  0  0
133134  2  0  0  0  0
133138  1  0  0  0  0
133139  1  0  0  0  0
134135  1  0  0  0  0
135136  2  0  0  0  0
136137  1  0  0  0  0
137138  2  0  0  0  0
137140  1  0  0  0  0
139146  2  0  0  0  0
139150  1  0  0  0  0
140141  2  0  0  0  0
140145  1  0  0  0  0
141142  1  0  0  0  0
142143  2  0  0  0  0
143144  1  0  0  0  0
143151  1  0  0  0  0
144145  2  0  0  0  0
146147  1  0  0  0  0
147148  2  0  0  0  0
148149  1  0  0  0  0
148152  1  0  0  0  0
149150  2  0  0  0  0
151154  2  0  0  0  0
152153  1  0  0  0  0
155160  1  0  0  0  0
155161  1  0  0  0  0
155156  2  0  0  0  0
156157  1  0  0  0  0
157158  2  0  0  0  0
158159  1  0  0  0  0
159160  2  0  0  0  0
159162  1  0  0  0  0
162163  2  0  0  0  0
163164  1  0  0  0  0
165167  1  0  0  0  0
166167  1  0  0  0  0
167168  1  0  0  0  0
167169  1  0  0  0  0
M  END
