mop_trimer_mbuild_bonds.pdb
 OpenBabel08092309433D

153161  0  0  1  0  0  0  0  0999 V2000
   -2.9290   -4.7330   -0.8670 C   0  0  0  0  0  0  0  0  0  0  0  0
   -3.8860   -5.2070   -1.4750 O   0  0  0  0  0  0  0  0  0  0  0  0
   -2.6290   -3.4460   -0.6580 C   0  0  0  0  0  0  0  0  0  0  0  0
   -1.5210   -3.0800   -0.0120 C   0  0  0  0  0  0  0  0  0  0  0  0
   -1.2310   -1.7930    0.1690 C   0  0  0  0  0  0  0  0  0  0  0  0
   -2.0310   -0.8030   -0.2780 C   0  0  0  0  0  0  0  0  0  0  0  0
   -1.7230    0.5050   -0.0650 C   0  0  0  0  0  0  0  0  0  0  0  0
   -0.4510    0.9920    0.0510 C   0  0  0  0  0  0  0  0  0  0  0  0
   -0.2810    2.2260    0.5640 C   0  0  0  0  0  0  0  0  0  0  0  0
   -1.3010    3.0250    0.8700 C   0  0  0  0  0  0  0  0  0  0  0  0
   -1.0050    4.2830    1.3380 O   0  0  0  0  0  0  0  0  0  0  0  0
   -2.0710    5.2080    1.6650 C   0  0  0  0  0  0  0  0  0  0  0  0
   -2.5400    2.5750    0.6650 C   0  0  0  0  0  0  0  0  0  0  0  0
   -2.7420    1.3440    0.2060 C   0  0  0  0  0  0  0  0  0  0  0  0
    0.6480    0.3510   -0.4200 C   0  0  0  0  0  0  0  0  0  0  0  0
    0.5930   -0.4150   -1.5260 C   0  0  0  0  0  0  0  0  0  0  0  0
    1.6490   -1.1020   -1.9530 C   0  0  0  0  0  0  0  0  0  0  0  0
    2.7800   -1.0770   -1.2590 C   0  0  0  0  0  0  0  0  0  0  0  0
    2.8800   -0.3260   -0.1590 C   0  0  0  0  0  0  0  0  0  0  0  0
    1.8330    0.4290    0.2060 C   0  0  0  0  0  0  0  0  0  0  0  0
    4.1060   -0.4400    0.7290 C   0  0  2  0  0  0  0  0  0  0  0  0
    3.7400   -1.1240    2.0030 N   0  0  0  0  0  0  0  0  0  0  0  0
    4.8040    0.9150    0.9630 C   0  0  0  0  0  0  0  0  0  0  0  0
   -3.1690   -1.1910   -0.8800 C   0  0  0  0  0  0  0  0  0  0  0  0
   -3.4490   -2.4800   -1.0870 C   0  0  0  0  0  0  0  0  0  0  0  0
   -0.8280   -3.8210    0.3850 H   0  0  0  0  0  0  0  0  0  0  0  0
   -0.3340   -1.5770    0.7440 H   0  0  0  0  0  0  0  0  0  0  0  0
    0.7120    2.6590    0.6610 H   0  0  0  0  0  0  0  0  0  0  0  0
   -1.6280    6.1680    1.9430 H   0  0  0  0  0  0  0  0  0  0  0  0
   -2.6490    4.8190    2.5070 H   0  0  0  0  0  0  0  0  0  0  0  0
   -2.7180    5.3520    0.7950 H   0  0  0  0  0  0  0  0  0  0  0  0
   -3.4090    3.1810    0.9020 H   0  0  0  0  0  0  0  0  0  0  0  0
   -3.7770    1.0200    0.1650 H   0  0  0  0  0  0  0  0  0  0  0  0
   -0.3170   -0.4780   -2.1170 H   0  0  0  0  0  0  0  0  0  0  0  0
    1.5710   -1.7120   -2.8500 H   0  0  0  0  0  0  0  0  0  0  0  0
    3.6150   -1.6950   -1.5800 H   0  0  0  0  0  0  0  0  0  0  0  0
    1.9250    1.0070    1.1220 H   0  0  0  0  0  0  0  0  0  0  0  0
    4.8360   -1.0810    0.2270 H   0  0  0  0  0  0  0  0  0  0  0  0
    3.6440   -2.1070    1.7570 H   0  0  0  0  0  0  0  0  0  0  0  0
    4.1720    1.6040    1.5260 H   0  0  0  0  0  0  0  0  0  0  0  0
    5.0520    1.3780    0.0040 H   0  0  0  0  0  0  0  0  0  0  0  0
    5.7360    0.7690    1.5150 H   0  0  0  0  0  0  0  0  0  0  0  0
   -3.8700   -0.4640   -1.2810 H   0  0  0  0  0  0  0  0  0  0  0  0
   -4.3640   -2.7320   -1.6170 H   0  0  0  0  0  0  0  0  0  0  0  0
    2.9690   -0.7380    3.0440 C   0  0  0  0  0  0  0  0  0  0  0  0
    1.8630   -1.1020    2.6610 O   0  0  0  0  0  0  0  0  0  0  0  0
    3.3510   -0.1570    4.1830 C   0  0  0  0  0  0  0  0  0  0  0  0
    4.6380    0.0350    4.4710 C   0  0  0  0  0  0  0  0  0  0  0  0
    4.9970    0.5950    5.6230 C   0  0  0  0  0  0  0  0  0  0  0  0
    4.1020    1.0310    6.5360 C   0  0  0  0  0  0  0  0  0  0  0  0
    4.4980    1.5870    7.7180 C   0  0  0  0  0  0  0  0  0  0  0  0
    5.6950    2.2190    7.9210 C   0  0  0  0  0  0  0  0  0  0  0  0
    6.1010    2.4440    9.1860 C   0  0  0  0  0  0  0  0  0  0  0  0
    5.3420    2.1710   10.2450 C   0  0  0  0  0  0  0  0  0  0  0  0
    5.8400    2.4890   11.4850 O   0  0  0  0  0  0  0  0  0  0  0  0
    5.0560    2.2220   12.6750 C   0  0  0  0  0  0  0  0  0  0  0  0
    4.1350    1.6460   10.0350 C   0  0  0  0  0  0  0  0  0  0  0  0
    3.7280    1.3630    8.8020 C   0  0  0  0  0  0  0  0  0  0  0  0
    6.4660    2.7230    6.9270 C   0  0  0  0  0  0  0  0  0  0  0  0
    5.9210    3.2550    5.8180 C   0  0  0  0  0  0  0  0  0  0  0  0
    6.6740    3.6630    4.7990 C   0  0  0  0  0  0  0  0  0  0  0  0
    7.9920    3.5060    4.8460 C   0  0  0  0  0  0  0  0  0  0  0  0
    8.5710    2.9890    5.9320 C   0  0  0  0  0  0  0  0  0  0  0  0
    7.8060    2.6670    6.9850 C   0  0  0  0  0  0  0  0  0  0  0  0
   10.0520    2.6420    5.9100 C   0  0  2  0  0  0  0  0  0  0  0  0
   10.2210    1.1600    5.8850 N   0  0  0  0  0  0  0  0  0  0  0  0
   10.8370    3.3070    7.0580 C   0  0  0  0  0  0  0  0  0  0  0  0
    2.8090    0.8030    6.2330 C   0  0  0  0  0  0  0  0  0  0  0  0
    2.4430    0.2290    5.0850 C   0  0  0  0  0  0  0  0  0  0  0  0
    5.4190   -0.2960    3.7900 H   0  0  0  0  0  0  0  0  0  0  0  0
    6.0640    0.6310    5.8090 H   0  0  0  0  0  0  0  0  0  0  0  0
    7.0430    2.9500    9.3880 H   0  0  0  0  0  0  0  0  0  0  0  0
    5.6020    2.5960   13.5450 H   0  0  0  0  0  0  0  0  0  0  0  0
    4.9030    1.1440   12.7790 H   0  0  0  0  0  0  0  0  0  0  0  0
    4.0940    2.7380   12.6080 H   0  0  0  0  0  0  0  0  0  0  0  0
    3.4730    1.4000   10.8600 H   0  0  0  0  0  0  0  0  0  0  0  0
    2.7770    0.8430    8.7400 H   0  0  0  0  0  0  0  0  0  0  0  0
    4.8430    3.3720    5.7300 H   0  0  0  0  0  0  0  0  0  0  0  0
    6.2040    4.0810    3.9120 H   0  0  0  0  0  0  0  0  0  0  0  0
    8.5900    3.7760    3.9790 H   0  0  0  0  0  0  0  0  0  0  0  0
    8.2930    2.2110    7.8430 H   0  0  0  0  0  0  0  0  0  0  0  0
   10.4810    3.0230    4.9790 H   0  0  0  0  0  0  0  0  0  0  0  0
    9.9940    0.8830    4.9330 H   0  0  0  0  0  0  0  0  0  0  0  0
   10.5280    2.9250    8.0330 H   0  0  0  0  0  0  0  0  0  0  0  0
   10.6770    4.3880    7.0430 H   0  0  0  0  0  0  0  0  0  0  0  0
   11.9070    3.1250    6.9380 H   0  0  0  0  0  0  0  0  0  0  0  0
    2.0060    1.1240    6.8890 H   0  0  0  0  0  0  0  0  0  0  0  0
    1.3820    0.0940    4.8850 H   0  0  0  0  0  0  0  0  0  0  0  0
    9.9760    0.2040    6.8100 C   0  0  0  0  0  0  0  0  0  0  0  0
    8.7980   -0.0420    6.5770 O   0  0  0  0  0  0  0  0  0  0  0  0
   10.8220   -0.3250    7.6960 C   0  0  0  0  0  0  0  0  0  0  0  0
   12.1160   -0.0020    7.7050 C   0  0  0  0  0  0  0  0  0  0  0  0
   12.9440   -0.5510    8.5890 C   0  0  0  0  0  0  0  0  0  0  0  0
   12.5300   -1.4210    9.5350 C   0  0  0  0  0  0  0  0  0  0  0  0
   13.3990   -1.9730   10.4290 C   0  0  0  0  0  0  0  0  0  0  0  0
   14.5700   -1.3920   10.8360 C   0  0  0  0  0  0  0  0  0  0  0  0
   15.4750   -2.1510   11.4830 C   0  0  0  0  0  0  0  0  0  0  0  0
   15.2480   -3.4190   11.8170 C   0  0  0  0  0  0  0  0  0  0  0  0
   16.2370   -4.0830   12.5030 O   0  0  0  0  0  0  0  0  0  0  0  0
   16.0490   -5.4680   12.8900 C   0  0  0  0  0  0  0  0  0  0  0  0
   14.0690   -3.9510   11.4970 C   0  0  0  0  0  0  0  0  0  0  0  0
   13.1690   -3.2410   10.8240 C   0  0  0  0  0  0  0  0  0  0  0  0
   14.8450   -0.0710   10.7150 C   0  0  0  0  0  0  0  0  0  0  0  0
   13.8870    0.8640   10.8450 C   0  0  0  0  0  0  0  0  0  0  0  0
   14.1420    2.1550   10.6420 C   0  0  0  0  0  0  0  0  0  0  0  0
   15.3570    2.5390   10.2590 C   0  0  0  0  0  0  0  0  0  0  0  0
   16.3340    1.6410   10.1230 C   0  0  0  0  0  0  0  0  0  0  0  0
   16.0800    0.3590   10.4130 C   0  0  0  0  0  0  0  0  0  0  0  0
   17.6700    2.0450    9.5220 C   0  0  2  0  0  0  0  0  0  0  0  0
   17.8500    1.3520    8.2170 N   0  0  0  0  0  0  0  0  0  0  0  0
   18.8550    1.8160   10.4820 C   0  0  0  0  0  0  0  0  0  0  0  0
   11.2270   -1.7580    9.4850 C   0  0  0  0  0  0  0  0  0  0  0  0
   10.3930   -1.2180    8.5930 C   0  0  0  0  0  0  0  0  0  0  0  0
   12.5250    0.6880    6.9700 H   0  0  0  0  0  0  0  0  0  0  0  0
   13.9910   -0.2920    8.4720 H   0  0  0  0  0  0  0  0  0  0  0  0
   16.4080   -1.7190   11.8380 H   0  0  0  0  0  0  0  0  0  0  0  0
   16.9260   -5.7940   13.4570 H   0  0  0  0  0  0  0  0  0  0  0  0
   15.9450   -6.0900   11.9970 H   0  0  0  0  0  0  0  0  0  0  0  0
   15.1610   -5.5590   13.5220 H   0  0  0  0  0  0  0  0  0  0  0  0
   13.8280   -4.9820   11.7430 H   0  0  0  0  0  0  0  0  0  0  0  0
   12.2810   -3.7880   10.5230 H   0  0  0  0  0  0  0  0  0  0  0  0
   12.8760    0.5860   11.1330 H   0  0  0  0  0  0  0  0  0  0  0  0
   13.3470    2.8880   10.7500 H   0  0  0  0  0  0  0  0  0  0  0  0
   15.5370    3.5870   10.0310 H   0  0  0  0  0  0  0  0  0  0  0  0
   16.8790   -0.3550   10.2640 H   0  0  0  0  0  0  0  0  0  0  0  0
   17.6470    3.1170    9.3050 H   0  0  0  0  0  0  0  0  0  0  0  0
   17.2770    1.8730    7.5560 H   0  0  0  0  0  0  0  0  0  0  0  0
   18.9340    0.7700   10.7850 H   0  0  0  0  0  0  0  0  0  0  0  0
   18.7340    2.4230   11.3810 H   0  0  0  0  0  0  0  0  0  0  0  0
   19.7910    2.1070    9.9990 H   0  0  0  0  0  0  0  0  0  0  0  0
   10.7900   -2.4410   10.2070 H   0  0  0  0  0  0  0  0  0  0  0  0
    9.3450   -1.5060    8.6210 H   0  0  0  0  0  0  0  0  0  0  0  0
   -2.7120   -6.9550    0.1010 C   0  0  0  0  0  0  0  0  0  0  0  0
   -2.1030   -5.7400   -0.4160 O   0  0  0  0  0  0  0  0  0  0  0  0
   -3.4570   -6.6930    0.8580 H   0  0  0  0  0  0  0  0  0  0  0  0
   -1.9360   -7.5770    0.5530 H   0  0  0  0  0  0  0  0  0  0  0  0
   -3.1890   -7.5050   -0.7150 H   0  0  0  0  0  0  0  0  0  0  0  0
   20.5290   -2.2590    9.2980 C   0  0  0  0  0  0  0  0  0  0  0  0
   19.2190   -1.9660    8.5360 C   0  0  0  0  0  0  0  0  0  0  0  0
   19.3040   -2.5150    7.0920 C   0  0  0  0  0  0  0  0  0  0  0  0
   18.0380   -2.6150    9.2950 C   0  0  0  0  0  0  0  0  0  0  0  0
   19.1040   -0.5150    8.5300 O   0  0  0  0  0  0  0  0  0  0  0  0
   18.0530    0.0630    7.8860 C   0  0  0  0  0  0  0  0  0  0  0  0
   17.0380    0.0400    7.1970 O   0  0  0  0  0  0  0  0  0  0  0  0
   20.7010   -3.3340    9.3880 H   0  0  0  0  0  0  0  0  0  0  0  0
   21.3820   -1.8120    8.7820 H   0  0  0  0  0  0  0  0  0  0  0  0
   20.4860   -1.8340   10.3050 H   0  0  0  0  0  0  0  0  0  0  0  0
   20.0850   -2.0010    6.5280 H   0  0  0  0  0  0  0  0  0  0  0  0
   18.3550   -2.3860    6.5660 H   0  0  0  0  0  0  0  0  0  0  0  0
   19.5350   -3.5830    7.1040 H   0  0  0  0  0  0  0  0  0  0  0  0
   18.0380   -2.2900   10.3370 H   0  0  0  0  0  0  0  0  0  0  0  0
   17.0780   -2.3550    8.8440 H   0  0  0  0  0  0  0  0  0  0  0  0
   18.1260   -3.7040    9.2920 H   0  0  0  0  0  0  0  0  0  0  0  0
  1  2  2  0  0  0  0
  1  3  1  0  0  0  0
  1134  1  0  0  0  0
  3  4  2  0  0  0  0
  3 25  1  0  0  0  0
  4  5  1  0  0  0  0
  4 26  1  0  0  0  0
  5  6  2  0  0  0  0
  5 27  1  0  0  0  0
  6  7  1  0  0  0  0
  6 24  1  0  0  0  0
  7  8  2  0  0  0  0
  7 14  1  0  0  0  0
  8  9  1  0  0  0  0
  8 15  1  0  0  0  0
  9 10  2  0  0  0  0
  9 28  1  0  0  0  0
 10 11  1  0  0  0  0
 10 13  1  0  0  0  0
 11 12  1  0  0  0  0
 12 29  1  0  0  0  0
 12 30  1  0  0  0  0
 12 31  1  0  0  0  0
 13 14  2  0  0  0  0
 13 32  1  0  0  0  0
 14 33  1  0  0  0  0
 15 16  2  0  0  0  0
 15 20  1  0  0  0  0
 16 17  1  0  0  0  0
 16 34  1  0  0  0  0
 17 18  2  0  0  0  0
 17 35  1  0  0  0  0
 18 19  1  0  0  0  0
 18 36  1  0  0  0  0
 19 20  2  0  0  0  0
 19 21  1  0  0  0  0
 20 37  1  0  0  0  0
 21 22  1  0  0  0  0
 21 23  1  0  0  0  0
 21 38  1  6  0  0  0
 22 39  1  0  0  0  0
 22 45  1  0  0  0  0
 23 40  1  0  0  0  0
 23 41  1  0  0  0  0
 23 42  1  0  0  0  0
 24 25  2  0  0  0  0
 24 43  1  0  0  0  0
 25 44  1  0  0  0  0
 45 46  2  0  0  0  0
 45 47  1  0  0  0  0
 47 48  2  0  0  0  0
 47 69  1  0  0  0  0
 48 49  1  0  0  0  0
 48 70  1  0  0  0  0
 49 50  2  0  0  0  0
 49 71  1  0  0  0  0
 50 51  1  0  0  0  0
 50 68  1  0  0  0  0
 51 52  2  0  0  0  0
 51 58  1  0  0  0  0
 52 53  1  0  0  0  0
 52 59  1  0  0  0  0
 53 54  2  0  0  0  0
 53 72  1  0  0  0  0
 54 55  1  0  0  0  0
 54 57  1  0  0  0  0
 55 56  1  0  0  0  0
 56 73  1  0  0  0  0
 56 74  1  0  0  0  0
 56 75  1  0  0  0  0
 57 58  2  0  0  0  0
 57 76  1  0  0  0  0
 58 77  1  0  0  0  0
 59 60  2  0  0  0  0
 59 64  1  0  0  0  0
 60 61  1  0  0  0  0
 60 78  1  0  0  0  0
 61 62  2  0  0  0  0
 61 79  1  0  0  0  0
 62 63  1  0  0  0  0
 62 80  1  0  0  0  0
 63 64  2  0  0  0  0
 63 65  1  0  0  0  0
 64 81  1  0  0  0  0
 65 66  1  0  0  0  0
 65 67  1  0  0  0  0
 65 82  1  6  0  0  0
 66 83  1  0  0  0  0
 66 89  1  0  0  0  0
 67 84  1  0  0  0  0
 67 85  1  0  0  0  0
 67 86  1  0  0  0  0
 68 69  2  0  0  0  0
 68 87  1  0  0  0  0
 69 88  1  0  0  0  0
 89 90  2  0  0  0  0
 89 91  1  0  0  0  0
 91 92  2  0  0  0  0
 91113  1  0  0  0  0
 92 93  1  0  0  0  0
 92114  1  0  0  0  0
 93 94  2  0  0  0  0
 93115  1  0  0  0  0
 94 95  1  0  0  0  0
 94112  1  0  0  0  0
 95 96  2  0  0  0  0
 95102  1  0  0  0  0
 96 97  1  0  0  0  0
 96103  1  0  0  0  0
 97 98  2  0  0  0  0
 97116  1  0  0  0  0
 98 99  1  0  0  0  0
 98101  1  0  0  0  0
 99100  1  0  0  0  0
100117  1  0  0  0  0
100118  1  0  0  0  0
100119  1  0  0  0  0
101102  2  0  0  0  0
101120  1  0  0  0  0
102121  1  0  0  0  0
103104  2  0  0  0  0
103108  1  0  0  0  0
104105  1  0  0  0  0
104122  1  0  0  0  0
105106  2  0  0  0  0
105123  1  0  0  0  0
106107  1  0  0  0  0
106124  1  0  0  0  0
107108  2  0  0  0  0
107109  1  0  0  0  0
108125  1  0  0  0  0
109110  1  0  0  0  0
109111  1  0  0  0  0
109126  1  6  0  0  0
110127  1  0  0  0  0
110143  1  0  0  0  0
111128  1  0  0  0  0
111129  1  0  0  0  0
111130  1  0  0  0  0
112113  2  0  0  0  0
112131  1  0  0  0  0
113132  1  0  0  0  0
133134  1  0  0  0  0
133135  1  0  0  0  0
133136  1  0  0  0  0
133137  1  0  0  0  0
138139  1  0  0  0  0
138145  1  0  0  0  0
138146  1  0  0  0  0
138147  1  0  0  0  0
139140  1  0  0  0  0
139141  1  0  0  0  0
139142  1  0  0  0  0
140148  1  0  0  0  0
140149  1  0  0  0  0
140150  1  0  0  0  0
141151  1  0  0  0  0
141152  1  0  0  0  0
141153  1  0  0  0  0
142143  1  0  0  0  0
143144  2  0  0  0  0
M  END
