
 OpenBabel07272220253D

373396  0  0  1  0  0  0  0  0999 V2000
  -15.9217   16.2934   -2.8276 H   0  0  0  0  0  0  0  0  0  0  0  0
  -26.1143   23.6958   -4.7423 H   0  0  0  0  0  0  0  0  0  0  0  0
  -22.3982   20.3703   -1.9888 H   0  0  0  0  0  0  0  0  0  0  0  0
  -30.7490   22.8484   -4.1134 H   0  0  0  0  0  0  0  0  0  0  0  0
  -28.6771   21.9602   -3.1702 H   0  0  0  0  0  0  0  0  0  0  0  0
   25.3091   12.9212  -12.4060 H   0  0  0  0  0  0  0  0  0  0  0  0
  -16.4885   18.5431    0.8120 H   0  0  0  0  0  0  0  0  0  0  0  0
   -8.7876   10.3408   -0.9095 H   0  0  0  0  0  0  0  0  0  0  0  0
   -7.2244   12.2061   -0.7385 H   0  0  0  0  0  0  0  0  0  0  0  0
  -26.1900   23.7511   -7.0199 H   0  0  0  0  0  0  0  0  0  0  0  0
   16.8768   15.4199   -3.7268 H   0  0  0  0  0  0  0  0  0  0  0  0
  -25.7330   20.0242  -10.2582 H   0  0  0  0  0  0  0  0  0  0  0  0
  -22.6144   21.8212  -10.1150 H   0  0  0  0  0  0  0  0  0  0  0  0
  -17.9731   16.7999    1.6707 H   0  0  0  0  0  0  0  0  0  0  0  0
  -22.9558   18.1174   -0.3381 H   0  0  0  0  0  0  0  0  0  0  0  0
  -11.1172   14.8762   -4.3511 H   0  0  0  0  0  0  0  0  0  0  0  0
  -29.1794   22.4612   -8.0823 H   0  0  0  0  0  0  0  0  0  0  0  0
  -17.3513   10.7784   -2.0100 H   0  0  0  0  0  0  0  0  0  0  0  0
  -23.9007   23.7801   -3.6842 H   0  0  0  0  0  0  0  0  0  0  0  0
   -7.0482   15.8314   -2.6164 H   0  0  0  0  0  0  0  0  0  0  0  0
  -12.5667   19.8554   -3.6555 C   0  0  0  0  0  0  0  0  0  0  0  0
   -4.0041   16.6541   -4.6600 H   0  0  0  0  0  0  0  0  0  0  0  0
   -1.7366   18.0843   -1.3012 H   0  0  0  0  0  0  0  0  0  0  0  0
    3.3532   13.6656   -3.0443 H   0  0  0  0  0  0  0  0  0  0  0  0
    1.4880   17.2859   -5.8419 H   0  0  0  0  0  0  0  0  0  0  0  0
  -20.3979   13.1304   -3.9220 H   0  0  0  0  0  0  0  0  0  0  0  0
   -4.7367   20.4600   -3.6015 H   0  0  0  0  0  0  0  0  0  0  0  0
   -0.3609   16.0567   -1.3339 H   0  0  0  0  0  0  0  0  0  0  0  0
   -4.0211   19.6746   -3.8583 C   0  0  0  0  0  0  0  0  0  0  0  0
    0.6583   11.5064   -0.1821 H   0  0  0  0  0  0  0  0  0  0  0  0
  -18.4514   14.7948    0.3387 H   0  0  0  0  0  0  0  0  0  0  0  0
  -12.3596   16.9930   -4.5477 H   0  0  0  0  0  0  0  0  0  0  0  0
  -12.6761   19.3802   -1.6203 H   0  0  0  0  0  0  0  0  0  0  0  0
   -7.8487   16.1135    2.2804 H   0  0  0  0  0  0  0  0  0  0  0  0
    2.2137   12.9768   -1.3651 H   0  0  0  0  0  0  0  0  0  0  0  0
  -22.1457   18.9134  -13.6130 H   0  0  0  0  0  0  0  0  0  0  0  0
  -19.8842   18.8190  -10.5557 H   0  0  0  0  0  0  0  0  0  0  0  0
  -19.2529   21.2984  -13.3369 H   0  0  0  0  0  0  0  0  0  0  0  0
  -20.6042   20.7915  -14.3588 H   0  0  0  0  0  0  0  0  0  0  0  0
   -5.4364   17.0593   -2.9805 H   0  0  0  0  0  0  0  0  0  0  0  0
  -11.4356   17.9443   -0.4571 H   0  0  0  0  0  0  0  0  0  0  0  0
   -3.1840   16.5404   -3.9549 C   0  0  0  0  0  0  0  0  0  0  0  0
   -1.9099   17.3397   -2.0752 C   0  0  0  0  0  0  0  0  0  0  0  0
   -6.8252   17.9952    1.1042 H   0  0  0  0  0  0  0  0  0  0  0  0
  -21.2661   20.7633  -11.6192 O   0  0  0  0  0  0  0  0  0  0  0  0
  -22.3677   21.3947  -12.0794 C   0  0  0  0  0  0  0  0  0  0  0  0
  -19.4338   19.2467  -11.4550 C   0  0  0  0  0  0  0  0  0  0  0  0
   -8.5203   14.0936    1.0641 H   0  0  0  0  0  0  0  0  0  0  0  0
    1.5051   14.6621   -3.6435 C   0  0  0  0  0  0  0  0  0  0  0  0
  -18.9168   16.8966   -3.8984 H   0  0  0  0  0  0  0  0  0  0  0  0
  -24.7161   23.9940   -8.9393 H   0  0  0  0  0  0  0  0  0  0  0  0
   -2.9666   17.5036   -2.9747 C   0  0  0  0  0  0  0  0  0  0  0  0
  -18.8387   18.4707  -11.9420 H   0  0  0  0  0  0  0  0  0  0  0  0
  -18.7620   20.0513  -11.1463 H   0  0  0  0  0  0  0  0  0  0  0  0
  -22.0670   18.2961  -11.9580 H   0  0  0  0  0  0  0  0  0  0  0  0
  -19.2151   19.7276  -14.1513 H   0  0  0  0  0  0  0  0  0  0  0  0
  -20.8902   17.7612  -13.1675 H   0  0  0  0  0  0  0  0  0  0  0  0
  -16.2518   12.7609   -1.0877 H   0  0  0  0  0  0  0  0  0  0  0  0
   -2.6668   14.6092   -4.7034 H   0  0  0  0  0  0  0  0  0  0  0  0
  -24.6516   23.7071  -11.6364 C   0  0  0  0  0  0  0  0  0  0  0  0
    1.8917   16.4807   -5.2333 C   0  0  0  0  0  0  0  0  0  0  0  0
  -21.2604   19.3878   -0.0099 C   0  0  0  0  0  0  0  0  0  0  0  0
  -14.4544   17.5248   -3.0437 H   0  0  0  0  0  0  0  0  0  0  0  0
   -5.3157   17.9549   -2.5339 N   0  0  0  0  0  0  0  0  0  0  0  0
   -3.7218   19.1217   -1.8395 H   0  0  0  0  0  0  0  0  0  0  0  0
   -2.6980   12.9349   -2.4000 H   0  0  0  0  0  0  0  0  0  0  0  0
  -19.8621   20.4431  -13.6382 C   0  0  0  0  0  0  0  0  0  0  0  0
  -22.1246   15.9641   -0.2323 H   0  0  0  0  0  0  0  0  0  0  0  0
  -31.2407   23.3519   -6.6012 O   0  0  0  0  0  0  0  0  0  0  0  0
  -11.2951   10.4607   -1.5354 O   0  0  0  0  0  0  0  0  0  0  0  0
  -24.9205   21.6116  -11.8123 H   0  0  0  0  0  0  0  0  0  0  0  0
    3.2592   16.3111   -5.1394 C   0  0  0  0  0  0  0  0  0  0  0  0
  -21.4653   18.6185  -12.8115 C   0  0  0  0  0  0  0  0  0  0  0  0
  -19.6158   10.7459   -3.4687 O   0  0  0  0  0  0  0  0  0  0  0  0
  -22.9040   21.7853   -2.7235 H   0  0  0  0  0  0  0  0  0  0  0  0
  -26.3531   19.4629   -3.9055 H   0  0  0  0  0  0  0  0  0  0  0  0
    3.9036   17.0072   -5.6698 H   0  0  0  0  0  0  0  0  0  0  0  0
  -20.3765   18.6898   -3.0528 H   0  0  0  0  0  0  0  0  0  0  0  0
  -20.7000   14.1577   -1.0655 H   0  0  0  0  0  0  0  0  0  0  0  0
   -4.0004   18.5969   -2.7579 C   0  0  2  0  0  0  0  0  0  0  0  0
    5.2997   15.0501   -4.5037 C   0  0  0  0  0  0  0  0  0  0  0  0
    5.9833   15.8486   -5.1141 O   0  0  0  0  0  0  0  0  0  0  0  0
  -22.8244   21.3412  -13.2054 O   0  0  0  0  0  0  0  0  0  0  0  0
  -20.5266   19.7832  -12.4045 C   0  0  0  0  0  0  0  0  0  0  0  0
   -1.9178   11.3901   -0.4626 O   0  0  0  0  0  0  0  0  0  0  0  0
  -10.2689   15.8358   -0.2089 H   0  0  0  0  0  0  0  0  0  0  0  0
    2.9160   14.4432   -3.6608 C   0  0  0  0  0  0  0  0  0  0  0  0
    3.7932   15.2375   -4.4276 C   0  0  0  0  0  0  0  0  0  0  0  0
  -17.5874   14.1421   -2.0997 C   0  0  0  0  0  0  0  0  0  0  0  0
  -17.0790   12.8801   -1.7789 C   0  0  0  0  0  0  0  0  0  0  0  0
  -17.7201   11.7552   -2.3050 C   0  0  0  0  0  0  0  0  0  0  0  0
  -18.8724   11.8566   -3.1092 C   0  0  0  0  0  0  0  0  0  0  0  0
  -19.4176   13.0977   -3.4499 C   0  0  0  0  0  0  0  0  0  0  0  0
  -18.8070   14.2745   -3.0040 C   0  0  0  0  0  0  0  0  0  0  0  0
  -17.8137   15.5701   -0.0789 C   0  0  0  0  0  0  0  0  0  0  0  0
  -19.6069   16.6848   -3.0859 C   0  0  0  0  0  0  0  0  0  0  0  0
  -19.6553   15.4078   -2.5016 C   0  0  0  0  0  0  0  0  0  0  0  0
  -20.6096   15.1491   -1.5060 C   0  0  0  0  0  0  0  0  0  0  0  0
  -21.4326   16.1656   -1.0357 C   0  0  0  0  0  0  0  0  0  0  0  0
  -21.3446   17.4528   -1.5794 C   0  0  0  0  0  0  0  0  0  0  0  0
  -20.4445   17.6975   -2.6149 C   0  0  0  0  0  0  0  0  0  0  0  0
  -17.5470   16.7006    0.6766 C   0  0  0  0  0  0  0  0  0  0  0  0
  -16.7089   17.6872    0.1792 C   0  0  0  0  0  0  0  0  0  0  0  0
  -16.0952   17.5525   -1.0707 C   0  0  0  0  0  0  0  0  0  0  0  0
  -16.3953   16.4218   -1.8565 C   0  0  0  0  0  0  0  0  0  0  0  0
  -17.2909   15.4368   -1.3757 C   0  0  0  0  0  0  0  0  0  0  0  0
  -22.1630   18.5621   -0.9463 C   0  0  2  0  0  0  0  0  0  0  0  0
  -22.8080   19.4544   -1.9132 N   0  0  0  0  0  0  0  0  0  0  0  0
  -15.0746   18.6031   -1.4437 C   0  0  0  0  0  0  0  0  0  0  0  0
  -14.8552   19.5569   -0.7205 O   0  0  0  0  0  0  0  0  0  0  0  0
  -29.0992   22.2715   -7.0157 C   0  0  0  0  0  0  0  0  0  0  0  0
  -30.1211   22.6685   -6.1550 C   0  0  0  0  0  0  0  0  0  0  0  0
  -29.9694   22.4953   -4.7840 C   0  0  0  0  0  0  0  0  0  0  0  0
  -28.7947   21.9689   -4.2513 C   0  0  0  0  0  0  0  0  0  0  0  0
  -27.7213   21.6010   -5.0790 C   0  0  0  0  0  0  0  0  0  0  0  0
  -27.9007   21.7342   -6.5050 C   0  0  0  0  0  0  0  0  0  0  0  0
  -26.6308   20.6578   -8.4129 C   0  0  0  0  0  0  0  0  0  0  0  0
  -25.6788   22.7819   -4.3506 C   0  0  0  0  0  0  0  0  0  0  0  0
  -26.3703   21.5658   -4.4393 C   0  0  0  0  0  0  0  0  0  0  0  0
  -25.8101   20.4051   -3.8723 C   0  0  0  0  0  0  0  0  0  0  0  0
  -24.5568   20.4625   -3.2370 C   0  0  0  0  0  0  0  0  0  0  0  0
  -23.8754   21.6891   -3.2010 C   0  0  0  0  0  0  0  0  0  0  0  0
  -24.4315   22.8323   -3.7467 C   0  0  0  0  0  0  0  0  0  0  0  0
  -26.7864   21.7182   -7.4971 C   0  0  0  0  0  0  0  0  0  0  0  0
  -26.0571   22.9049   -7.6880 C   0  0  0  0  0  0  0  0  0  0  0  0
  -25.2336   23.0501   -8.7964 C   0  0  0  0  0  0  0  0  0  0  0  0
  -25.1520   22.0389   -9.7540 C   0  0  0  0  0  0  0  0  0  0  0  0
  -25.8094   20.8268   -9.5276 C   0  0  0  0  0  0  0  0  0  0  0  0
  -23.9796   19.2438   -2.5585 C   0  0  0  0  0  0  0  0  0  0  0  0
  -24.4491   22.2786  -11.0843 C   0  0  2  0  0  0  0  0  0  0  0  0
  -23.0349   21.9037  -11.0275 N   0  0  0  0  0  0  0  0  0  0  0  0
  -24.5518   18.1731   -2.5073 O   0  0  0  0  0  0  0  0  0  0  0  0
  -10.8187   12.7832   -2.0892 C   0  0  0  0  0  0  0  0  0  0  0  0
  -10.4104   11.5198   -1.6649 C   0  0  0  0  0  0  0  0  0  0  0  0
   -9.0935   11.3221   -1.2645 C   0  0  0  0  0  0  0  0  0  0  0  0
   -8.1936   12.3852   -1.1964 C   0  0  0  0  0  0  0  0  0  0  0  0
   -8.5777   13.6944   -1.5412 C   0  0  0  0  0  0  0  0  0  0  0  0
   -9.9178   13.8677   -2.0640 C   0  0  0  0  0  0  0  0  0  0  0  0
  -11.1522   15.5548   -3.5022 C   0  0  0  0  0  0  0  0  0  0  0  0
   -8.0124   14.8910    0.5274 C   0  0  0  0  0  0  0  0  0  0  0  0
   -7.6583   16.0393    1.2132 C   0  0  0  0  0  0  0  0  0  0  0  0
   -7.0912   17.1074    0.5356 C   0  0  0  0  0  0  0  0  0  0  0  0
   -6.7988   17.0270   -0.8248 C   0  0  0  0  0  0  0  0  0  0  0  0
   -7.1907   15.8767   -1.5440 C   0  0  0  0  0  0  0  0  0  0  0  0
   -7.8498   14.8169   -0.8676 C   0  0  0  0  0  0  0  0  0  0  0  0
  -10.5404   15.2120   -2.2766 C   0  0  0  0  0  0  0  0  0  0  0  0
  -10.6546   16.0953   -1.1875 C   0  0  0  0  0  0  0  0  0  0  0  0
  -11.3356   17.2943   -1.3231 C   0  0  0  0  0  0  0  0  0  0  0  0
  -11.9523   17.6240   -2.5254 C   0  0  0  0  0  0  0  0  0  0  0  0
  -11.8516   16.7568   -3.6158 C   0  0  0  0  0  0  0  0  0  0  0  0
   -6.0345   18.1902   -1.4151 C   0  0  0  0  0  0  0  0  0  0  0  0
  -12.8692   18.8311   -2.5465 C   0  0  2  0  0  0  0  0  0  0  0  0
  -14.2645   18.3504   -2.4989 N   0  0  0  0  0  0  0  0  0  0  0  0
   -5.8521   19.2134   -0.7821 O   0  0  0  0  0  0  0  0  0  0  0  0
    0.6613   13.9127   -2.5839 C   0  0  0  0  0  0  0  0  0  0  0  0
    1.1604   13.0166   -1.6241 C   0  0  0  0  0  0  0  0  0  0  0  0
    0.2827   12.1463   -0.9767 C   0  0  0  0  0  0  0  0  0  0  0  0
   -1.0739   12.0833   -1.3045 C   0  0  0  0  0  0  0  0  0  0  0  0
   -1.6141   12.8660   -2.3244 C   0  0  0  0  0  0  0  0  0  0  0  0
   -0.8012   13.7887   -3.0000 C   0  0  0  0  0  0  0  0  0  0  0  0
    1.0261   15.6369   -4.5544 C   0  0  0  0  0  0  0  0  0  0  0  0
   -2.4233   15.3792   -3.9754 C   0  0  0  0  0  0  0  0  0  0  0  0
   -1.3977   15.1704   -3.0358 C   0  0  0  0  0  0  0  0  0  0  0  0
   -1.1249   16.1849   -2.0968 C   0  0  0  0  0  0  0  0  0  0  0  0
   24.3252   11.4350  -12.3053 H   0  0  0  0  0  0  0  0  0  0  0  0
   25.3141   11.9315  -10.9090 H   0  0  0  0  0  0  0  0  0  0  0  0
   29.0670   17.1906   -9.3632 H   0  0  0  0  0  0  0  0  0  0  0  0
   29.7044   16.0971  -10.6176 H   0  0  0  0  0  0  0  0  0  0  0  0
  -11.8543   12.9508   -2.3732 H   0  0  0  0  0  0  0  0  0  0  0  0
  -31.5875   23.5119   -7.9988 C   0  0  0  0  0  0  0  0  0  0  0  0
  -19.2697    9.3810   -3.1351 C   0  0  0  0  0  0  0  0  0  0  0  0
  -12.7357   10.6256   -1.5082 C   0  0  0  0  0  0  0  0  0  0  0  0
   -2.6217   10.2085   -0.8978 C   0  0  0  0  0  0  0  0  0  0  0  0
  -32.4290   24.2058   -8.0749 H   0  0  0  0  0  0  0  0  0  0  0  0
  -30.7413   23.9218   -8.5574 H   0  0  0  0  0  0  0  0  0  0  0  0
  -31.8760   22.5410   -8.4094 H   0  0  0  0  0  0  0  0  0  0  0  0
  -20.0909    8.7252   -3.4396 H   0  0  0  0  0  0  0  0  0  0  0  0
  -18.3606    9.0988   -3.6722 H   0  0  0  0  0  0  0  0  0  0  0  0
  -19.1188    9.2851   -2.0560 H   0  0  0  0  0  0  0  0  0  0  0  0
  -13.1959    9.6794   -1.2098 H   0  0  0  0  0  0  0  0  0  0  0  0
  -13.0081   11.4001   -0.7847 H   0  0  0  0  0  0  0  0  0  0  0  0
  -13.0900   10.9027   -2.5044 H   0  0  0  0  0  0  0  0  0  0  0  0
   -3.3556    9.9378   -0.1328 H   0  0  0  0  0  0  0  0  0  0  0  0
   -3.1348   10.4054   -1.8424 H   0  0  0  0  0  0  0  0  0  0  0  0
   -1.9053    9.3922   -1.0193 H   0  0  0  0  0  0  0  0  0  0  0  0
  -25.7094   23.9799  -11.6034 H   0  0  0  0  0  0  0  0  0  0  0  0
  -24.0851   24.4405  -11.0585 H   0  0  0  0  0  0  0  0  0  0  0  0
  -24.3197   23.7667  -12.6748 H   0  0  0  0  0  0  0  0  0  0  0  0
  -20.7616   18.7400    0.7148 H   0  0  0  0  0  0  0  0  0  0  0  0
  -20.4916   19.9137   -0.5822 H   0  0  0  0  0  0  0  0  0  0  0  0
  -21.8479   20.1281    0.5374 H   0  0  0  0  0  0  0  0  0  0  0  0
  -11.5142   20.1494   -3.6114 H   0  0  0  0  0  0  0  0  0  0  0  0
  -12.7729   19.4494   -4.6466 H   0  0  0  0  0  0  0  0  0  0  0  0
  -13.1688   20.7555   -3.5101 H   0  0  0  0  0  0  0  0  0  0  0  0
   -3.0355   20.1384   -3.9488 H   0  0  0  0  0  0  0  0  0  0  0  0
   -4.2985   19.2537   -4.8262 H   0  0  0  0  0  0  0  0  0  0  0  0
  -27.1951   19.7348   -8.3003 H   0  0  0  0  0  0  0  0  0  0  0  0
   23.4995   18.8218   -7.9128 H   0  0  0  0  0  0  0  0  0  0  0  0
   12.6816   11.6414   -2.5779 H   0  0  0  0  0  0  0  0  0  0  0  0
    5.2482   13.2604   -3.5617 H   0  0  0  0  0  0  0  0  0  0  0  0
   14.3836    7.4982   -5.3889 H   0  0  0  0  0  0  0  0  0  0  0  0
   15.0540    9.8153   -5.1120 H   0  0  0  0  0  0  0  0  0  0  0  0
   35.9732   35.9666  -10.1757 H   0  0  0  0  0  0  0  0  0  0  0  0
   23.4990   18.5939   -3.6032 H   0  0  0  0  0  0  0  0  0  0  0  0
   32.5959   19.5155  -10.5274 H   0  0  0  0  0  0  0  0  0  0  0  0
   32.7638   21.7516   -9.5688 H   0  0  0  0  0  0  0  0  0  0  0  0
    9.0075    9.6746   -4.1973 H   0  0  0  0  0  0  0  0  0  0  0  0
   -0.0113   15.8344   -4.7532 H   0  0  0  0  0  0  0  0  0  0  0  0
    9.6608   14.5328   -4.7557 H   0  0  0  0  0  0  0  0  0  0  0  0
   11.2205    6.0826   -7.3038 H   0  0  0  0  0  0  0  0  0  0  0  0
   23.8604   16.1770   -3.7210 H   0  0  0  0  0  0  0  0  0  0  0  0
   19.1286   14.2523   -3.8964 H   0  0  0  0  0  0  0  0  0  0  0  0
   26.8774   21.8343  -10.4860 H   0  0  0  0  0  0  0  0  0  0  0  0
   10.2726    8.5848   -5.3821 H   0  0  0  0  0  0  0  0  0  0  0  0
   25.8512   14.1041  -10.2298 H   0  0  0  0  0  0  0  0  0  0  0  0
   14.0335   13.3646   -1.4621 H   0  0  0  0  0  0  0  0  0  0  0  0
   29.9239   24.7579   -9.1193 H   0  0  0  0  0  0  0  0  0  0  0  0
   23.6144   23.6919   -6.8046 C   0  0  0  0  0  0  0  0  0  0  0  0
   31.1039   28.4695  -10.5342 H   0  0  0  0  0  0  0  0  0  0  0  0
   36.0938   31.8296   -9.8871 H   0  0  0  0  0  0  0  0  0  0  0  0
   32.3320   29.6122   -6.5775 H   0  0  0  0  0  0  0  0  0  0  0  0
   37.5130   28.4215   -7.6270 H   0  0  0  0  0  0  0  0  0  0  0  0
   21.5527   14.1745  -10.1809 H   0  0  0  0  0  0  0  0  0  0  0  0
   28.1335   29.5405   -7.9803 H   0  0  0  0  0  0  0  0  0  0  0  0
   34.6518   29.3474   -7.1990 H   0  0  0  0  0  0  0  0  0  0  0  0
   29.0675   29.7023   -8.5243 C   0  0  0  0  0  0  0  0  0  0  0  0
   38.6104   26.7792  -11.4256 H   0  0  0  0  0  0  0  0  0  0  0  0
   24.0477   15.0436   -5.8910 H   0  0  0  0  0  0  0  0  0  0  0  0
   24.7941   22.3097   -9.2603 H   0  0  0  0  0  0  0  0  0  0  0  0
   24.7442   22.5343   -5.4762 H   0  0  0  0  0  0  0  0  0  0  0  0
   31.7236   22.8874   -4.8776 H   0  0  0  0  0  0  0  0  0  0  0  0
   38.4578   29.1967  -11.0485 H   0  0  0  0  0  0  0  0  0  0  0  0
   38.3471   24.5349  -11.9855 H   0  0  0  0  0  0  0  0  0  0  0  0
   22.7897   23.7631   -6.0917 H   0  0  0  0  0  0  0  0  0  0  0  0
   10.7636    4.9872   -5.9693 H   0  0  0  0  0  0  0  0  0  0  0  0
   36.6537   24.5826  -12.5791 H   0  0  0  0  0  0  0  0  0  0  0  0
   30.1430   26.8896   -8.9079 H   0  0  0  0  0  0  0  0  0  0  0  0
   26.9428   22.2376   -5.5347 H   0  0  0  0  0  0  0  0  0  0  0  0
   31.8860   28.7391   -9.8285 C   0  0  0  0  0  0  0  0  0  0  0  0
   32.5706   29.3793   -7.6124 C   0  0  0  0  0  0  0  0  0  0  0  0
   30.7371   25.1197   -4.9006 H   0  0  0  0  0  0  0  0  0  0  0  0
   24.2378   24.5817   -6.6816 H   0  0  0  0  0  0  0  0  0  0  0  0
   37.2318   23.1892  -11.6250 H   0  0  0  0  0  0  0  0  0  0  0  0
   11.4607   13.0585   -5.3794 H   0  0  0  0  0  0  0  0  0  0  0  0
   31.7923   21.5289   -6.9145 H   0  0  0  0  0  0  0  0  0  0  0  0
   36.4360   31.3864   -8.9551 C   0  0  0  0  0  0  0  0  0  0  0  0
   20.5578   17.4780   -8.1209 H   0  0  0  0  0  0  0  0  0  0  0  0
    7.2268   11.1790   -3.6083 H   0  0  0  0  0  0  0  0  0  0  0  0
   31.5571   29.0517   -8.5093 C   0  0  0  0  0  0  0  0  0  0  0  0
   28.8970   29.5192   -9.5855 H   0  0  0  0  0  0  0  0  0  0  0  0
   29.3524   30.7493   -8.3880 H   0  0  0  0  0  0  0  0  0  0  0  0
   23.2081   23.6889   -7.8172 H   0  0  0  0  0  0  0  0  0  0  0  0
    9.9803    6.5787   -6.1101 H   0  0  0  0  0  0  0  0  0  0  0  0
   18.8771   17.2797   -3.8004 H   0  0  0  0  0  0  0  0  0  0  0  0
   25.9965   15.7505   -8.4213 H   0  0  0  0  0  0  0  0  0  0  0  0
   33.4503   28.2358  -11.2016 H   0  0  0  0  0  0  0  0  0  0  0  0
    7.1209   13.4178   -2.4130 H   0  0  0  0  0  0  0  0  0  0  0  0
   37.2359   29.4732   -7.6957 C   0  0  0  0  0  0  0  0  0  0  0  0
   19.1931   16.3077   -3.4146 C   0  0  0  0  0  0  0  0  0  0  0  0
   23.8325   20.6798   -7.5318 H   0  0  0  0  0  0  0  0  0  0  0  0
   29.8752   27.3333   -8.0422 N   0  0  0  0  0  0  0  0  0  0  0  0
   30.2050   29.0585   -6.8976 H   0  0  0  0  0  0  0  0  0  0  0  0
   34.8873   26.0587   -9.3975 H   0  0  0  0  0  0  0  0  0  0  0  0
   36.9895   32.1875   -5.6902 H   0  0  0  0  0  0  0  0  0  0  0  0
   20.5886   13.3621   -5.3491 H   0  0  0  0  0  0  0  0  0  0  0  0
   11.9628    6.5842   -5.4306 O   0  0  0  0  0  0  0  0  0  0  0  0
   30.4835   18.0265  -10.6583 O   0  0  0  0  0  0  0  0  0  0  0  0
    7.8762   15.2712   -3.0189 C   0  0  0  0  0  0  0  0  0  0  0  0
   37.3032   30.2559   -6.5522 C   0  0  0  0  0  0  0  0  0  0  0  0
   18.7083   16.1470   -2.4492 H   0  0  0  0  0  0  0  0  0  0  0  0
   23.5853   13.0595  -11.2481 O   0  0  0  0  0  0  0  0  0  0  0  0
   15.8189   14.5237   -2.6423 H   0  0  0  0  0  0  0  0  0  0  0  0
   14.9616   12.2459   -6.1958 H   0  0  0  0  0  0  0  0  0  0  0  0
   37.6347   29.8189   -5.6136 H   0  0  0  0  0  0  0  0  0  0  0  0
   18.9619   17.2369   -6.2585 H   0  0  0  0  0  0  0  0  0  0  0  0
   22.1647   13.5703   -7.2067 H   0  0  0  0  0  0  0  0  0  0  0  0
   30.1656   28.7891   -7.9560 C   0  0  2  0  0  0  0  0  0  0  0  0
   36.2596   33.6602   -7.8225 C   0  0  0  0  0  0  0  0  0  0  0  0
   36.2973   34.3287   -6.8053 O   0  0  0  0  0  0  0  0  0  0  0  0
   28.5433   17.3754  -11.0670 H   0  0  0  0  0  0  0  0  0  0  0  0
   20.2735   16.3376   -3.2516 H   0  0  0  0  0  0  0  0  0  0  0  0
   36.8919   24.9150  -10.5419 O   0  0  0  0  0  0  0  0  0  0  0  0
   28.9970   21.7042   -6.7049 H   0  0  0  0  0  0  0  0  0  0  0  0
   36.5406   32.1824   -7.8041 C   0  0  0  0  0  0  0  0  0  0  0  0
   36.9336   31.5944   -6.5994 C   0  0  0  0  0  0  0  0  0  0  0  0
   23.8507   16.0629   -8.3484 C   0  0  0  0  0  0  0  0  0  0  0  0
   25.0281   15.5068   -8.8507 C   0  0  0  0  0  0  0  0  0  0  0  0
   24.9324   14.5612   -9.8743 C   0  0  0  0  0  0  0  0  0  0  0  0
   23.6904   14.1294  -10.3736 C   0  0  0  0  0  0  0  0  0  0  0  0
   22.4856   14.6567   -9.8973 C   0  0  0  0  0  0  0  0  0  0  0  0
   22.4946   15.6505   -8.9114 C   0  0  0  0  0  0  0  0  0  0  0  0
   23.8618   16.1147   -5.8663 C   0  0  0  0  0  0  0  0  0  0  0  0
   20.5731   16.5743   -7.5138 C   0  0  0  0  0  0  0  0  0  0  0  0
   21.5192   15.5625   -7.7690 C   0  0  0  0  0  0  0  0  0  0  0  0
   21.4707   14.3839   -7.0093 C   0  0  0  0  0  0  0  0  0  0  0  0
   20.5668   14.2607   -5.9611 C   0  0  0  0  0  0  0  0  0  0  0  0
   19.6665   15.2840   -5.6699 C   0  0  0  0  0  0  0  0  0  0  0  0
   19.6625   16.4314   -6.4696 C   0  0  0  0  0  0  0  0  0  0  0  0
   23.7549   16.7498   -4.6383 C   0  0  0  0  0  0  0  0  0  0  0  0
   23.5432   18.1191   -4.5799 C   0  0  0  0  0  0  0  0  0  0  0  0
   23.4787   18.8887   -5.7458 C   0  0  0  0  0  0  0  0  0  0  0  0
   23.5484   18.2411   -6.9950 C   0  0  0  0  0  0  0  0  0  0  0  0
   23.6964   16.8351   -7.0583 C   0  0  0  0  0  0  0  0  0  0  0  0
   18.8301   15.1772   -4.3983 C   0  0  2  0  0  0  0  0  0  0  0  0
   17.3661   15.0655   -4.5325 N   0  0  0  0  0  0  0  0  0  0  0  0
   23.4303   20.3890   -5.5694 C   0  0  0  0  0  0  0  0  0  0  0  0
   23.3486   20.8964   -4.4664 O   0  0  0  0  0  0  0  0  0  0  0  0
   11.3019    8.9115   -5.3193 C   0  0  0  0  0  0  0  0  0  0  0  0
   12.2840    7.9280   -5.4172 C   0  0  0  0  0  0  0  0  0  0  0  0
   13.6215    8.2734   -5.3630 C   0  0  0  0  0  0  0  0  0  0  0  0
   13.9930    9.6000   -5.2201 C   0  0  0  0  0  0  0  0  0  0  0  0
   13.0376   10.6216   -5.0599 C   0  0  0  0  0  0  0  0  0  0  0  0
   11.6112   10.2790   -5.0861 C   0  0  0  0  0  0  0  0  0  0  0  0
   10.5438   12.6152   -5.0020 C   0  0  0  0  0  0  0  0  0  0  0  0
   13.4194   12.1941   -3.1546 C   0  0  0  0  0  0  0  0  0  0  0  0
   13.6629   11.8700   -4.4966 C   0  0  0  0  0  0  0  0  0  0  0  0
   14.7157   12.5303   -5.1748 C   0  0  0  0  0  0  0  0  0  0  0  0
   15.4967   13.5071   -4.5351 C   0  0  0  0  0  0  0  0  0  0  0  0
   15.2090   13.8182   -3.1995 C   0  0  0  0  0  0  0  0  0  0  0  0
   14.1903   13.1607   -2.5182 C   0  0  0  0  0  0  0  0  0  0  0  0
   10.4360   11.2191   -4.8271 C   0  0  0  0  0  0  0  0  0  0  0  0
    9.1834   10.7320   -4.3633 C   0  0  0  0  0  0  0  0  0  0  0  0
    8.1431   11.5976   -4.0182 C   0  0  0  0  0  0  0  0  0  0  0  0
    8.2906   12.9807   -4.1067 C   0  0  0  0  0  0  0  0  0  0  0  0
    9.4913   13.4667   -4.6503 C   0  0  0  0  0  0  0  0  0  0  0  0
   16.7054   14.1064   -5.2278 C   0  0  0  0  0  0  0  0  0  0  0  0
    7.2686   13.8934   -3.3865 C   0  0  2  0  0  0  0  0  0  0  0  0
    5.8761   13.9593   -3.9269 N   0  0  0  0  0  0  0  0  0  0  0  0
   17.1155   13.7042   -6.2985 O   0  0  0  0  0  0  0  0  0  0  0  0
   29.3070   20.0151   -9.8897 C   0  0  0  0  0  0  0  0  0  0  0  0
   30.4708   19.3648  -10.2956 C   0  0  0  0  0  0  0  0  0  0  0  0
   31.6861   20.0383  -10.2419 C   0  0  0  0  0  0  0  0  0  0  0  0
   31.7737   21.3280   -9.7183 C   0  0  0  0  0  0  0  0  0  0  0  0
   30.6378   22.0079   -9.2373 C   0  0  0  0  0  0  0  0  0  0  0  0
   29.3662   21.3296   -9.3809 C   0  0  0  0  0  0  0  0  0  0  0  0
   26.9093   21.9531   -9.4052 C   0  0  0  0  0  0  0  0  0  0  0  0
   31.4146   22.5471   -6.9712 C   0  0  0  0  0  0  0  0  0  0  0  0
   31.3523   23.2995   -5.8115 C   0  0  0  0  0  0  0  0  0  0  0  0
   30.7778   24.5611   -5.8330 C   0  0  0  0  0  0  0  0  0  0  0  0
   30.3236   25.1327   -7.0237 C   0  0  0  0  0  0  0  0  0  0  0  0
   30.3581   24.3640   -8.2040 C   0  0  0  0  0  0  0  0  0  0  0  0
   30.8582   23.0363   -8.1651 C   0  0  0  0  0  0  0  0  0  0  0  0
   28.1180   21.7876   -8.6958 C   0  0  0  0  0  0  0  0  0  0  0  0
   28.1071   21.8987   -7.2919 C   0  0  0  0  0  0  0  0  0  0  0  0
   26.9300   22.1871   -6.6209 C   0  0  0  0  0  0  0  0  0  0  0  0
   25.7359   22.3319   -7.3197 C   0  0  0  0  0  0  0  0  0  0  0  0
   25.7298   22.2257   -8.7119 C   0  0  0  0  0  0  0  0  0  0  0  0
   29.8334   26.5621   -6.9302 C   0  0  0  0  0  0  0  0  0  0  0  0
   24.4490   22.4295   -6.5240 C   0  0  2  0  0  0  0  0  0  0  0  0
   23.7202   21.1516   -6.6484 N   0  0  0  0  0  0  0  0  0  0  0  0
   29.6376   27.0772   -5.8442 O   0  0  0  0  0  0  0  0  0  0  0  0
   36.5141   29.1066  -10.0871 C   0  0  0  0  0  0  0  0  0  0  0  0
   37.6208   28.5647  -10.7623 C   0  0  0  0  0  0  0  0  0  0  0  0
   37.7272   27.1755  -10.9319 C   0  0  0  0  0  0  0  0  0  0  0  0
   36.7710   26.2848  -10.4180 C   0  0  0  0  0  0  0  0  0  0  0  0
   35.6657   26.7482   -9.7152 C   0  0  0  0  0  0  0  0  0  0  0  0
   35.5614   28.1134   -9.4705 C   0  0  0  0  0  0  0  0  0  0  0  0
   36.7319   30.0078   -8.8971 C   0  0  0  0  0  0  0  0  0  0  0  0
   33.2224   28.6220  -10.2107 C   0  0  0  0  0  0  0  0  0  0  0  0
   34.2486   28.8163   -9.2682 C   0  0  0  0  0  0  0  0  0  0  0  0
   33.9031   29.2513   -7.9779 C   0  0  0  0  0  0  0  0  0  0  0  0
   36.0823   34.2181   -9.0430 O   0  0  0  0  0  0  0  0  0  0  0  0
   35.1007   36.0114   -8.6146 H   0  0  0  0  0  0  0  0  0  0  0  0
   36.0031   35.6651   -9.1262 C   0  0  0  0  0  0  0  0  0  0  0  0
   36.8849   36.1046   -8.6487 H   0  0  0  0  0  0  0  0  0  0  0  0
   28.3609   19.4803   -9.8868 H   0  0  0  0  0  0  0  0  0  0  0  0
   10.9139    6.0315   -6.2563 C   0  0  0  0  0  0  0  0  0  0  0  0
   24.7078   12.2926  -11.7446 C   0  0  0  0  0  0  0  0  0  0  0  0
   29.3787   17.1203  -10.4098 C   0  0  0  0  0  0  0  0  0  0  0  0
   37.3109   24.2715  -11.7629 C   0  0  0  0  0  0  0  0  0  0  0  0
    8.7894   15.1367   -2.4356 H   0  0  0  0  0  0  0  0  0  0  0  0
    8.1328   15.8489   -3.9092 H   0  0  0  0  0  0  0  0  0  0  0  0
    7.1750   15.8577   -2.4230 H   0  0  0  0  0  0  0  0  0  0  0  0
  1105  1  0  0  0  0
  2118  1  0  0  0  0
  3108  1  0  0  0  0
  4113  1  0  0  0  0
  5114  1  0  0  0  0
  6368  1  0  0  0  0
  7103  1  0  0  0  0
  8135  1  0  0  0  0
  9136  1  0  0  0  0
 10125  1  0  0  0  0
 11305  1  0  0  0  0
 12128  1  0  0  0  0
 13131  1  0  0  0  0
 14102  1  0  0  0  0
 16139  1  0  0  0  0
 17111  1  0  0  0  0
 18 91  1  0  0  0  0
 19123  1  0  0  0  0
 20144  1  0  0  0  0
 21152  1  0  0  0  0
 21192  1  0  0  0  0
 21193  1  0  0  0  0
 21194  1  0  0  0  0
 22 42  1  0  0  0  0
 23 43  1  0  0  0  0
 24 87  1  0  0  0  0
 25 61  1  0  0  0  0
 26 93  1  0  0  0  0
 27 29  1  0  0  0  0
 28164  1  0  0  0  0
 29 80  1  0  0  0  0
 29195  1  0  0  0  0
 29196  1  0  0  0  0
 30157  1  0  0  0  0
 31 95  1  0  0  0  0
 32150  1  0  0  0  0
 34141  1  0  0  0  0
 35156  1  0  0  0  0
 36 73  1  0  0  0  0
 37 47  1  0  0  0  0
 38 67  1  0  0  0  0
 39 67  1  0  0  0  0
 40 64  1  0  0  0  0
 41148  1  0  0  0  0
 42162  1  0  0  0  0
 42 52  2  0  0  0  0
 43164  2  0  0  0  0
 43 52  1  0  0  0  0
 44142  1  0  0  0  0
 45 46  1  0  0  0  0
 45 84  1  0  0  0  0
 46 83  2  0  0  0  0
 46131  1  0  0  0  0
 47 53  1  0  0  0  0
 47 54  1  0  0  0  0
 47 84  1  0  0  0  0
 48140  1  0  0  0  0
 49155  1  0  0  0  0
 49161  1  0  0  0  0
 49 87  2  0  0  0  0
 50 96  1  0  0  0  0
 51126  1  0  0  0  0
 52 80  1  0  0  0  0
 55 73  1  0  0  0  0
 56 67  1  0  0  0  0
 57 73  1  0  0  0  0
 58 90  1  0  0  0  0
 59162  1  0  0  0  0
 60130  1  0  0  0  0
 60186  1  0  0  0  0
 60187  1  0  0  0  0
 60188  1  0  0  0  0
 61 72  1  0  0  0  0
 61161  2  0  0  0  0
 62107  1  0  0  0  0
 62189  1  0  0  0  0
 62190  1  0  0  0  0
 62191  1  0  0  0  0
 63153  1  0  0  0  0
 64151  1  0  0  0  0
 64 80  1  0  0  0  0
 66159  1  0  0  0  0
 67 84  1  0  0  0  0
 68 99  1  0  0  0  0
 69112  1  0  0  0  0
 69170  1  0  0  0  0
 70134  1  0  0  0  0
 70172  1  0  0  0  0
 72 77  1  0  0  0  0
 72 88  2  0  0  0  0
 73 84  1  0  0  0  0
 74 92  1  0  0  0  0
 74171  1  0  0  0  0
 75122  1  0  0  0  0
 76120  1  0  0  0  0
 78101  1  0  0  0  0
 79 98  1  0  0  0  0
 80 65  1  1  0  0  0
 81 88  1  0  0  0  0
 81 82  2  0  0  0  0
 81328  1  0  0  0  0
 85158  1  0  0  0  0
 85173  1  0  0  0  0
 86147  1  0  0  0  0
 87 88  1  0  0  0  0
 89106  1  0  0  0  0
 89 90  2  0  0  0  0
 89 94  1  0  0  0  0
 90 91  1  0  0  0  0
 91 92  2  0  0  0  0
 92 93  1  0  0  0  0
 93 94  2  0  0  0  0
 94 97  1  0  0  0  0
 95102  2  0  0  0  0
 95106  1  0  0  0  0
 96 97  2  0  0  0  0
 96101  1  0  0  0  0
 97 98  1  0  0  0  0
 98 99  2  0  0  0  0
 99100  1  0  0  0  0
100101  2  0  0  0  0
100107  1  0  0  0  0
102103  1  0  0  0  0
103104  2  0  0  0  0
104105  1  0  0  0  0
104109  1  0  0  0  0
105106  2  0  0  0  0
107 15  1  1  0  0  0
107108  1  0  0  0  0
108129  1  0  0  0  0
109110  2  0  0  0  0
109153  1  0  0  0  0
111112  2  0  0  0  0
111116  1  0  0  0  0
112113  1  0  0  0  0
113114  2  0  0  0  0
114115  1  0  0  0  0
115119  1  0  0  0  0
115116  2  0  0  0  0
116124  1  0  0  0  0
117124  2  0  0  0  0
117128  1  0  0  0  0
117197  1  0  0  0  0
118119  2  0  0  0  0
118123  1  0  0  0  0
119120  1  0  0  0  0
120121  2  0  0  0  0
121122  1  0  0  0  0
121129  1  0  0  0  0
122123  2  0  0  0  0
124125  1  0  0  0  0
125126  2  0  0  0  0
126127  1  0  0  0  0
127128  2  0  0  0  0
127130  1  0  0  0  0
129132  2  0  0  0  0
130 71  1  6  0  0  0
130131  1  0  0  0  0
133134  2  0  0  0  0
133138  1  0  0  0  0
133169  1  0  0  0  0
134135  1  0  0  0  0
135136  2  0  0  0  0
136137  1  0  0  0  0
137145  1  0  0  0  0
137138  2  0  0  0  0
138146  1  0  0  0  0
139146  2  0  0  0  0
139150  1  0  0  0  0
140141  2  0  0  0  0
140145  1  0  0  0  0
141142  1  0  0  0  0
142143  2  0  0  0  0
143144  1  0  0  0  0
143151  1  0  0  0  0
144145  2  0  0  0  0
146147  1  0  0  0  0
147148  2  0  0  0  0
148149  1  0  0  0  0
149150  2  0  0  0  0
149152  1  0  0  0  0
151154  2  0  0  0  0
152 33  1  1  0  0  0
152153  1  0  0  0  0
155160  1  0  0  0  0
155156  2  0  0  0  0
156157  1  0  0  0  0
157158  2  0  0  0  0
158159  1  0  0  0  0
159160  2  0  0  0  0
160163  1  0  0  0  0
161208  1  0  0  0  0
162163  2  0  0  0  0
163164  1  0  0  0  0
165368  1  0  0  0  0
166368  1  0  0  0  0
167369  1  0  0  0  0
168369  1  0  0  0  0
170174  1  0  0  0  0
170175  1  0  0  0  0
170176  1  0  0  0  0
171177  1  0  0  0  0
171178  1  0  0  0  0
171179  1  0  0  0  0
172180  1  0  0  0  0
172181  1  0  0  0  0
172182  1  0  0  0  0
173185  1  0  0  0  0
173183  1  0  0  0  0
173184  1  0  0  0  0
198302  1  0  0  0  0
199315  1  0  0  0  0
200328  1  0  0  0  0
201310  1  0  0  0  0
202311  1  0  0  0  0
203364  1  0  0  0  0
204300  1  0  0  0  0
205332  1  0  0  0  0
206333  1  0  0  0  0
207322  1  0  0  0  0
209325  1  0  0  0  0
210367  1  0  0  0  0
211299  1  0  0  0  0
213336  1  0  0  0  0
214308  1  0  0  0  0
215288  1  0  0  0  0
216320  1  0  0  0  0
217341  1  0  0  0  0
218349  1  0  0  0  0
218242  1  0  0  0  0
218252  1  0  0  0  0
218234  1  0  0  0  0
219239  1  0  0  0  0
220246  1  0  0  0  0
221240  1  0  0  0  0
222258  1  0  0  0  0
223290  1  0  0  0  0
224226  1  0  0  0  0
225361  1  0  0  0  0
226277  1  0  0  0  0
226251  1  0  0  0  0
226250  1  0  0  0  0
227354  1  0  0  0  0
228292  1  0  0  0  0
229347  1  0  0  0  0
231338  1  0  0  0  0
232353  1  0  0  0  0
233370  1  0  0  0  0
236370  1  0  0  0  0
237261  1  0  0  0  0
238345  1  0  0  0  0
239359  1  0  0  0  0
239249  2  0  0  0  0
240361  2  0  0  0  0
240249  1  0  0  0  0
241339  1  0  0  0  0
243370  1  0  0  0  0
244314  1  0  0  0  0
245337  1  0  0  0  0
246358  1  0  0  0  0
246284  2  0  0  0  0
247293  1  0  0  0  0
248323  1  0  0  0  0
249277  1  0  0  0  0
254259  1  0  0  0  0
255287  1  0  0  0  0
256359  1  0  0  0  0
258269  1  0  0  0  0
258358  2  0  0  0  0
259304  1  0  0  0  0
259281  1  0  0  0  0
259270  1  0  0  0  0
260350  1  0  0  0  0
261348  1  0  0  0  0
261277  1  0  0  0  0
263356  1  0  0  0  0
265296  1  0  0  0  0
266309  1  0  0  0  0
266367  1  0  0  0  0
267331  1  0  0  0  0
267369  1  0  0  0  0
268327  1  0  0  0  0
268371  1  0  0  0  0
268372  1  0  0  0  0
268373  1  0  0  0  0
269274  1  0  0  0  0
269285  2  0  0  0  0
271289  1  0  0  0  0
271368  1  0  0  0  0
272319  1  0  0  0  0
273317  1  0  0  0  0
275298  1  0  0  0  0
276295  1  0  0  0  0
277262  1  1  0  0  0
278284  1  0  0  0  0
278279  2  0  0  0  0
278362  1  0  0  0  0
280369  1  0  0  0  0
282355  1  0  0  0  0
282370  1  0  0  0  0
283344  1  0  0  0  0
284285  1  0  0  0  0
285264  1  0  0  0  0
286303  1  0  0  0  0
286287  2  0  0  0  0
286291  1  0  0  0  0
287288  1  0  0  0  0
288289  2  0  0  0  0
289290  1  0  0  0  0
290291  2  0  0  0  0
291294  1  0  0  0  0
292299  2  0  0  0  0
292303  1  0  0  0  0
293294  2  0  0  0  0
293298  1  0  0  0  0
294295  1  0  0  0  0
295296  2  0  0  0  0
296297  1  0  0  0  0
297298  2  0  0  0  0
297304  1  0  0  0  0
299300  1  0  0  0  0
300301  2  0  0  0  0
301302  1  0  0  0  0
301306  1  0  0  0  0
302303  2  0  0  0  0
304212  1  1  0  0  0
304305  1  0  0  0  0
305326  1  0  0  0  0
306307  2  0  0  0  0
306350  1  0  0  0  0
308309  2  0  0  0  0
308313  1  0  0  0  0
309310  1  0  0  0  0
310311  2  0  0  0  0
311312  1  0  0  0  0
312316  1  0  0  0  0
312313  2  0  0  0  0
313321  1  0  0  0  0
314321  2  0  0  0  0
314325  1  0  0  0  0
315316  2  0  0  0  0
315320  1  0  0  0  0
316317  1  0  0  0  0
317318  2  0  0  0  0
318319  1  0  0  0  0
318326  1  0  0  0  0
319320  2  0  0  0  0
321322  1  0  0  0  0
322323  2  0  0  0  0
323324  1  0  0  0  0
324325  2  0  0  0  0
324327  1  0  0  0  0
326329  2  0  0  0  0
327257  1  1  0  0  0
327328  1  0  0  0  0
330331  2  0  0  0  0
330335  1  0  0  0  0
330366  1  0  0  0  0
331332  1  0  0  0  0
332333  2  0  0  0  0
333334  1  0  0  0  0
334342  1  0  0  0  0
334335  2  0  0  0  0
335343  1  0  0  0  0
336343  2  0  0  0  0
336347  1  0  0  0  0
337338  2  0  0  0  0
337342  1  0  0  0  0
338339  1  0  0  0  0
339340  2  0  0  0  0
340341  1  0  0  0  0
340348  1  0  0  0  0
341342  2  0  0  0  0
343344  1  0  0  0  0
344345  2  0  0  0  0
345346  1  0  0  0  0
346347  2  0  0  0  0
346349  1  0  0  0  0
348351  2  0  0  0  0
349230  1  1  0  0  0
349350  1  0  0  0  0
352357  1  0  0  0  0
352358  1  0  0  0  0
352353  2  0  0  0  0
353354  1  0  0  0  0
354355  2  0  0  0  0
355356  1  0  0  0  0
356357  2  0  0  0  0
357360  1  0  0  0  0
359360  2  0  0  0  0
360361  1  0  0  0  0
362364  1  0  0  0  0
363364  1  0  0  0  0
364365  1  0  0  0  0
367253  1  0  0  0  0
367235  1  0  0  0  0
M  END
