pop_trimer_mbuild_bonds.pdb
 OpenBabel08142313093D

153161  0  0  1  0  0  0  0  0999 V2000
   -2.2320   -4.5720   -1.8130 C   0  0  0  0  0  0  0  0  0  0  0  0
   -1.5720   -4.9260   -2.8260 O   0  0  0  0  0  0  0  0  0  0  0  0
   -2.1550   -3.1920   -1.2980 C   0  0  0  0  0  0  0  0  0  0  0  0
   -2.9030   -2.8320   -0.1670 C   0  0  0  0  0  0  0  0  0  0  0  0
   -2.8400   -1.5300    0.3370 C   0  0  0  0  0  0  0  0  0  0  0  0
   -2.0210   -0.5700   -0.2770 C   0  0  0  0  0  0  0  0  0  0  0  0
   -1.9460    0.8070    0.2690 C   0  0  0  0  0  0  0  0  0  0  0  0
   -0.7100    1.4230    0.5930 C   0  0  0  0  0  0  0  0  0  0  0  0
   -0.7010    2.7570    1.0340 C   0  0  0  0  0  0  0  0  0  0  0  0
   -1.8890    3.4780    1.1810 C   0  0  0  0  0  0  0  0  0  0  0  0
   -1.8120    4.8050    1.6300 O   0  0  0  0  0  0  0  0  0  0  0  0
   -2.9380    5.6540    1.8270 C   0  0  0  0  0  0  0  0  0  0  0  0
   -3.1120    2.8550    0.8810 C   0  0  0  0  0  0  0  0  0  0  0  0
   -3.1370    1.5340    0.4300 C   0  0  0  0  0  0  0  0  0  0  0  0
    0.5760    0.6890    0.5210 C   0  0  0  0  0  0  0  0  0  0  0  0
    1.6410    1.2020   -0.2360 C   0  0  0  0  0  0  0  0  0  0  0  0
    2.8480    0.5030   -0.3210 C   0  0  0  0  0  0  0  0  0  0  0  0
    3.0170   -0.7140    0.3620 C   0  0  0  0  0  0  0  0  0  0  0  0
    1.9510   -1.2230    1.1220 C   0  0  0  0  0  0  0  0  0  0  0  0
    0.7450   -0.5240    1.2080 C   0  0  0  0  0  0  0  0  0  0  0  0
    4.3080   -1.4950    0.2440 C   0  0  2  0  0  0  0  0  0  0  0  0
    5.4590   -0.6150    0.4550 N   0  0  0  0  0  0  0  0  0  0  0  0
    4.3970   -2.1580   -1.1340 C   0  0  0  0  0  0  0  0  0  0  0  0
   -1.2840   -0.9260   -1.4180 C   0  0  0  0  0  0  0  0  0  0  0  0
   -1.3460   -2.2280   -1.9220 C   0  0  0  0  0  0  0  0  0  0  0  0
   -3.5350   -3.5600    0.3280 H   0  0  0  0  0  0  0  0  0  0  0  0
   -3.4170   -1.2750    1.2180 H   0  0  0  0  0  0  0  0  0  0  0  0
    0.2380    3.2370    1.2860 H   0  0  0  0  0  0  0  0  0  0  0  0
   -2.5870    6.6440    2.1840 H   0  0  0  0  0  0  0  0  0  0  0  0
   -3.6160    5.2190    2.5920 H   0  0  0  0  0  0  0  0  0  0  0  0
   -3.4820    5.7940    0.8690 H   0  0  0  0  0  0  0  0  0  0  0  0
   -4.0490    3.3840    0.9850 H   0  0  0  0  0  0  0  0  0  0  0  0
   -4.0910    1.0830    0.1840 H   0  0  0  0  0  0  0  0  0  0  0  0
    1.5290    2.1340   -0.7760 H   0  0  0  0  0  0  0  0  0  0  0  0
    3.6500    0.9090   -0.9260 H   0  0  0  0  0  0  0  0  0  0  0  0
    2.0520   -2.1640    1.6490 H   0  0  0  0  0  0  0  0  0  0  0  0
   -0.0600   -0.9300    1.8090 H   0  0  0  0  0  0  0  0  0  0  0  0
    4.3330   -2.3020    1.0130 H   0  0  0  0  0  0  0  0  0  0  0  0
    6.3280   -1.1970    0.4410 H   0  0  0  0  0  0  0  0  0  0  0  0
    3.5160   -2.8150   -1.3000 H   0  0  0  0  0  0  0  0  0  0  0  0
    4.4320   -1.3910   -1.9370 H   0  0  0  0  0  0  0  0  0  0  0  0
    5.3130   -2.7820   -1.1980 H   0  0  0  0  0  0  0  0  0  0  0  0
   -0.6620   -0.1950   -1.9200 H   0  0  0  0  0  0  0  0  0  0  0  0
   -0.7630   -2.4790   -2.7990 H   0  0  0  0  0  0  0  0  0  0  0  0
    5.3650   -0.0460    1.8400 C   0  0  0  0  0  0  0  0  0  0  0  0
    5.8570    1.0920    2.0660 O   0  0  0  0  0  0  0  0  0  0  0  0
    4.7050   -0.8160    2.9100 C   0  0  0  0  0  0  0  0  0  0  0  0
    4.1690   -2.0800    2.6250 C   0  0  0  0  0  0  0  0  0  0  0  0
    3.5430   -2.8270    3.6270 C   0  0  0  0  0  0  0  0  0  0  0  0
    3.4510   -2.3220    4.9340 C   0  0  0  0  0  0  0  0  0  0  0  0
    2.7980   -3.1220    5.9990 C   0  0  0  0  0  0  0  0  0  0  0  0
    3.4430   -3.4090    7.2290 C   0  0  0  0  0  0  0  0  0  0  0  0
    2.7430   -4.1060    8.2280 C   0  0  0  0  0  0  0  0  0  0  0  0
    1.4310   -4.5420    8.0200 C   0  0  0  0  0  0  0  0  0  0  0  0
    0.7890   -5.2380    9.0550 O   0  0  0  0  0  0  0  0  0  0  0  0
   -0.5410   -5.7410    8.9820 C   0  0  0  0  0  0  0  0  0  0  0  0
    0.8060   -4.2760    6.7900 C   0  0  0  0  0  0  0  0  0  0  0  0
    1.4840   -3.5740    5.7930 C   0  0  0  0  0  0  0  0  0  0  0  0
    4.8540   -3.0300    7.4830 C   0  0  0  0  0  0  0  0  0  0  0  0
    5.1890   -2.2670    8.6120 C   0  0  0  0  0  0  0  0  0  0  0  0
    6.5150   -1.8920    8.8440 C   0  0  0  0  0  0  0  0  0  0  0  0
    7.5330   -2.2880    7.9590 C   0  0  0  0  0  0  0  0  0  0  0  0
    7.1960   -3.0560    6.8320 C   0  0  0  0  0  0  0  0  0  0  0  0
    5.8700   -3.4310    6.6010 C   0  0  0  0  0  0  0  0  0  0  0  0
    8.9660   -1.8540    8.1830 C   0  0  2  0  0  0  0  0  0  0  0  0
    9.3610   -2.0950    9.5720 N   0  0  0  0  0  0  0  0  0  0  0  0
    9.1250   -0.3710    7.8390 C   0  0  0  0  0  0  0  0  0  0  0  0
    3.9750   -1.0500    5.2170 C   0  0  0  0  0  0  0  0  0  0  0  0
    4.6010   -0.3050    4.2150 C   0  0  0  0  0  0  0  0  0  0  0  0
    4.2360   -2.4920    1.6250 H   0  0  0  0  0  0  0  0  0  0  0  0
    3.1450   -3.8050    3.3890 H   0  0  0  0  0  0  0  0  0  0  0  0
    3.2270   -4.3320    9.1710 H   0  0  0  0  0  0  0  0  0  0  0  0
   -0.7920   -6.2450    9.9370 H   0  0  0  0  0  0  0  0  0  0  0  0
   -0.6250   -6.4800    8.1570 H   0  0  0  0  0  0  0  0  0  0  0  0
   -1.2570   -4.9070    8.8220 H   0  0  0  0  0  0  0  0  0  0  0  0
   -0.2070   -4.6010    6.5970 H   0  0  0  0  0  0  0  0  0  0  0  0
    0.9730   -3.3630    4.8610 H   0  0  0  0  0  0  0  0  0  0  0  0
    4.4190   -1.9440    9.3030 H   0  0  0  0  0  0  0  0  0  0  0  0
    6.7470   -1.2870    9.7120 H   0  0  0  0  0  0  0  0  0  0  0  0
    7.9600   -3.3640    6.1290 H   0  0  0  0  0  0  0  0  0  0  0  0
    5.6350   -4.0320    5.7310 H   0  0  0  0  0  0  0  0  0  0  0  0
    9.6440   -2.4350    7.5160 H   0  0  0  0  0  0  0  0  0  0  0  0
   10.3740   -1.8560    9.6740 H   0  0  0  0  0  0  0  0  0  0  0  0
    8.8120   -0.1860    6.7890 H   0  0  0  0  0  0  0  0  0  0  0  0
    8.5090    0.2580    8.5160 H   0  0  0  0  0  0  0  0  0  0  0  0
   10.1890   -0.0690    7.9430 H   0  0  0  0  0  0  0  0  0  0  0  0
    3.8960   -0.6340    6.2140 H   0  0  0  0  0  0  0  0  0  0  0  0
    5.0020    0.6710    4.4610 H   0  0  0  0  0  0  0  0  0  0  0  0
    9.2550   -3.5670    9.8410 C   0  0  0  0  0  0  0  0  0  0  0  0
    8.9940   -3.9560   11.0110 O   0  0  0  0  0  0  0  0  0  0  0  0
    9.4560   -4.5330    8.7450 C   0  0  0  0  0  0  0  0  0  0  0  0
    9.7460   -4.0660    7.4540 C   0  0  0  0  0  0  0  0  0  0  0  0
    9.9430   -4.9660    6.4040 C   0  0  0  0  0  0  0  0  0  0  0  0
    9.8600   -6.3490    6.6290 C   0  0  0  0  0  0  0  0  0  0  0  0
   10.0830   -7.3030    5.5150 C   0  0  0  0  0  0  0  0  0  0  0  0
   11.0250   -8.3590    5.6050 C   0  0  0  0  0  0  0  0  0  0  0  0
   11.1350   -9.2760    4.5450 C   0  0  0  0  0  0  0  0  0  0  0  0
   10.3490   -9.1480    3.3950 C   0  0  0  0  0  0  0  0  0  0  0  0
   10.5100  -10.0920    2.3700 O   0  0  0  0  0  0  0  0  0  0  0  0
    9.7810  -10.0840    1.1470 C   0  0  0  0  0  0  0  0  0  0  0  0
    9.4350   -8.0850    3.3030 C   0  0  0  0  0  0  0  0  0  0  0  0
    9.3060   -7.1740    4.3530 C   0  0  0  0  0  0  0  0  0  0  0  0
   11.9320   -8.5080    6.7680 C   0  0  0  0  0  0  0  0  0  0  0  0
   11.9790   -9.7170    7.4780 C   0  0  0  0  0  0  0  0  0  0  0  0
   12.8180   -9.8540    8.5870 C   0  0  0  0  0  0  0  0  0  0  0  0
   13.6370   -8.7870    8.9960 C   0  0  0  0  0  0  0  0  0  0  0  0
   13.5920   -7.5780    8.2820 C   0  0  0  0  0  0  0  0  0  0  0  0
   12.7530   -7.4430    7.1730 C   0  0  0  0  0  0  0  0  0  0  0  0
   14.5210   -8.9150   10.2190 C   0  0  2  0  0  0  0  0  0  0  0  0
   15.2800  -10.1660   10.1720 N   0  0  0  0  0  0  0  0  0  0  0  0
   13.6690   -8.8610   11.4910 C   0  0  0  0  0  0  0  0  0  0  0  0
    9.5550   -6.8170    7.9180 C   0  0  0  0  0  0  0  0  0  0  0  0
    9.3590   -5.9160    8.9690 C   0  0  0  0  0  0  0  0  0  0  0  0
    9.8230   -3.0030    7.2590 H   0  0  0  0  0  0  0  0  0  0  0  0
   10.1770   -4.5860    5.4170 H   0  0  0  0  0  0  0  0  0  0  0  0
   11.8520  -10.0860    4.6010 H   0  0  0  0  0  0  0  0  0  0  0  0
   10.1090  -10.9410    0.5250 H   0  0  0  0  0  0  0  0  0  0  0  0
    9.9790   -9.1440    0.5910 H   0  0  0  0  0  0  0  0  0  0  0  0
    8.6940  -10.1870    1.3500 H   0  0  0  0  0  0  0  0  0  0  0  0
    8.8140   -7.9570    2.4280 H   0  0  0  0  0  0  0  0  0  0  0  0
    8.5790   -6.3760    4.2670 H   0  0  0  0  0  0  0  0  0  0  0  0
   11.3500  -10.5490    7.1840 H   0  0  0  0  0  0  0  0  0  0  0  0
   12.8250  -10.7900    9.1310 H   0  0  0  0  0  0  0  0  0  0  0  0
   14.2050   -6.7380    8.5840 H   0  0  0  0  0  0  0  0  0  0  0  0
   12.7420   -6.5050    6.6300 H   0  0  0  0  0  0  0  0  0  0  0  0
   15.2420   -8.0650   10.2540 H   0  0  0  0  0  0  0  0  0  0  0  0
   15.9320  -10.1880   10.9900 H   0  0  0  0  0  0  0  0  0  0  0  0
   13.0830   -7.9170   11.5180 H   0  0  0  0  0  0  0  0  0  0  0  0
   12.9700   -9.7230   11.5310 H   0  0  0  0  0  0  0  0  0  0  0  0
   14.3230   -8.8910   12.3880 H   0  0  0  0  0  0  0  0  0  0  0  0
    9.4670   -7.8790    8.1100 H   0  0  0  0  0  0  0  0  0  0  0  0
    9.1310   -6.3030    9.9550 H   0  0  0  0  0  0  0  0  0  0  0  0
   -2.2630   -6.3170   -0.2910 C   0  0  0  0  0  0  0  0  0  0  0  0
   -3.1070   -5.5800   -1.1290 O   0  0  0  0  0  0  0  0  0  0  0  0
   -1.4790   -6.8290   -0.8910 H   0  0  0  0  0  0  0  0  0  0  0  0
   -2.8610   -7.0830    0.2440 H   0  0  0  0  0  0  0  0  0  0  0  0
   -1.7860   -5.6470    0.4570 H   0  0  0  0  0  0  0  0  0  0  0  0
   19.2260  -12.1660    8.1870 C   0  0  0  0  0  0  0  0  0  0  0  0
   18.1880  -11.1020    7.7990 C   0  0  0  0  0  0  0  0  0  0  0  0
   18.9120   -9.7600    7.5730 C   0  0  0  0  0  0  0  0  0  0  0  0
   17.4700  -11.5530    6.5130 C   0  0  0  0  0  0  0  0  0  0  0  0
   17.2580  -10.9970    8.8880 O   0  0  0  0  0  0  0  0  0  0  0  0
   16.1490  -10.1420    8.9500 C   0  0  0  0  0  0  0  0  0  0  0  0
   15.8630   -9.3560    8.0090 O   0  0  0  0  0  0  0  0  0  0  0  0
   19.9820  -12.2980    7.3830 H   0  0  0  0  0  0  0  0  0  0  0  0
   19.7510  -11.8700    9.1210 H   0  0  0  0  0  0  0  0  0  0  0  0
   18.7270  -13.1430    8.3680 H   0  0  0  0  0  0  0  0  0  0  0  0
   19.3650   -9.4050    8.5240 H   0  0  0  0  0  0  0  0  0  0  0  0
   18.2140   -8.9800    7.2060 H   0  0  0  0  0  0  0  0  0  0  0  0
   19.7190   -9.8740    6.8170 H   0  0  0  0  0  0  0  0  0  0  0  0
   16.8900  -12.4820    6.7030 H   0  0  0  0  0  0  0  0  0  0  0  0
   16.7710  -10.7750    6.1450 H   0  0  0  0  0  0  0  0  0  0  0  0
   18.2060  -11.7540    5.7040 H   0  0  0  0  0  0  0  0  0  0  0  0
  1  2  2  0  0  0  0
  1  3  1  0  0  0  0
  1134  1  0  0  0  0
  3  4  2  0  0  0  0
  3 25  1  0  0  0  0
  4  5  1  0  0  0  0
  4 26  1  0  0  0  0
  5  6  2  0  0  0  0
  5 27  1  0  0  0  0
  6  7  1  0  0  0  0
  6 24  1  0  0  0  0
  7  8  2  0  0  0  0
  7 14  1  0  0  0  0
  8  9  1  0  0  0  0
  8 15  1  0  0  0  0
  9 10  2  0  0  0  0
  9 28  1  0  0  0  0
 10 11  1  0  0  0  0
 10 13  1  0  0  0  0
 11 12  1  0  0  0  0
 12 29  1  0  0  0  0
 12 30  1  0  0  0  0
 12 31  1  0  0  0  0
 13 14  2  0  0  0  0
 13 32  1  0  0  0  0
 14 33  1  0  0  0  0
 15 16  2  0  0  0  0
 15 20  1  0  0  0  0
 16 17  1  0  0  0  0
 16 34  1  0  0  0  0
 17 18  2  0  0  0  0
 17 35  1  0  0  0  0
 18 19  1  0  0  0  0
 18 21  1  0  0  0  0
 19 20  2  0  0  0  0
 19 36  1  0  0  0  0
 20 37  1  0  0  0  0
 21 22  1  0  0  0  0
 21 23  1  0  0  0  0
 21 38  1  1  0  0  0
 22 39  1  0  0  0  0
 22 45  1  0  0  0  0
 23 40  1  0  0  0  0
 23 41  1  0  0  0  0
 23 42  1  0  0  0  0
 24 25  2  0  0  0  0
 24 43  1  0  0  0  0
 25 44  1  0  0  0  0
 45 46  2  0  0  0  0
 45 47  1  0  0  0  0
 47 48  2  0  0  0  0
 47 69  1  0  0  0  0
 48 49  1  0  0  0  0
 48 70  1  0  0  0  0
 49 50  2  0  0  0  0
 49 71  1  0  0  0  0
 50 51  1  0  0  0  0
 50 68  1  0  0  0  0
 51 52  2  0  0  0  0
 51 58  1  0  0  0  0
 52 53  1  0  0  0  0
 52 59  1  0  0  0  0
 53 54  2  0  0  0  0
 53 72  1  0  0  0  0
 54 55  1  0  0  0  0
 54 57  1  0  0  0  0
 55 56  1  0  0  0  0
 56 73  1  0  0  0  0
 56 74  1  0  0  0  0
 56 75  1  0  0  0  0
 57 58  2  0  0  0  0
 57 76  1  0  0  0  0
 58 77  1  0  0  0  0
 59 60  2  0  0  0  0
 59 64  1  0  0  0  0
 60 61  1  0  0  0  0
 60 78  1  0  0  0  0
 61 62  2  0  0  0  0
 61 79  1  0  0  0  0
 62 63  1  0  0  0  0
 62 65  1  0  0  0  0
 63 64  2  0  0  0  0
 63 80  1  0  0  0  0
 64 81  1  0  0  0  0
 65 66  1  0  0  0  0
 65 67  1  0  0  0  0
 65 82  1  6  0  0  0
 66 83  1  0  0  0  0
 66 89  1  0  0  0  0
 67 84  1  0  0  0  0
 67 85  1  0  0  0  0
 67 86  1  0  0  0  0
 68 69  2  0  0  0  0
 68 87  1  0  0  0  0
 69 88  1  0  0  0  0
 89 90  2  0  0  0  0
 89 91  1  0  0  0  0
 91 92  2  0  0  0  0
 91113  1  0  0  0  0
 92 93  1  0  0  0  0
 92114  1  0  0  0  0
 93 94  2  0  0  0  0
 93115  1  0  0  0  0
 94 95  1  0  0  0  0
 94112  1  0  0  0  0
 95 96  2  0  0  0  0
 95102  1  0  0  0  0
 96 97  1  0  0  0  0
 96103  1  0  0  0  0
 97 98  2  0  0  0  0
 97116  1  0  0  0  0
 98 99  1  0  0  0  0
 98101  1  0  0  0  0
 99100  1  0  0  0  0
100117  1  0  0  0  0
100118  1  0  0  0  0
100119  1  0  0  0  0
101102  2  0  0  0  0
101120  1  0  0  0  0
102121  1  0  0  0  0
103104  2  0  0  0  0
103108  1  0  0  0  0
104105  1  0  0  0  0
104122  1  0  0  0  0
105106  2  0  0  0  0
105123  1  0  0  0  0
106107  1  0  0  0  0
106109  1  0  0  0  0
107108  2  0  0  0  0
107124  1  0  0  0  0
108125  1  0  0  0  0
109110  1  0  0  0  0
109111  1  0  0  0  0
109126  1  1  0  0  0
110127  1  0  0  0  0
110143  1  0  0  0  0
111128  1  0  0  0  0
111129  1  0  0  0  0
111130  1  0  0  0  0
112113  2  0  0  0  0
112131  1  0  0  0  0
113132  1  0  0  0  0
133134  1  0  0  0  0
133135  1  0  0  0  0
133136  1  0  0  0  0
133137  1  0  0  0  0
138139  1  0  0  0  0
138145  1  0  0  0  0
138146  1  0  0  0  0
138147  1  0  0  0  0
139140  1  0  0  0  0
139141  1  0  0  0  0
139142  1  0  0  0  0
140148  1  0  0  0  0
140149  1  0  0  0  0
140150  1  0  0  0  0
141151  1  0  0  0  0
141152  1  0  0  0  0
141153  1  0  0  0  0
142143  1  0  0  0  0
143144  2  0  0  0  0
M  END
