mop_hexamer_mbuild.pdb
 OpenBabel10112216193D

285302  0  0  1  0  0  0  0  0999 V2000
   -0.9950   -5.9540   -1.3630 C   0  0  0  0  0  0  0  0  0  0  0  0
   -0.2320   -4.7560   -1.2690 O   0  0  0  0  0  0  0  0  0  0  0  0
   -0.7530   -3.5120   -0.8820 C   0  0  0  0  0  0  0  0  0  0  0  0
   -2.1060   -3.3340   -0.5480 C   0  0  0  0  0  0  0  0  0  0  0  0
   -2.5770   -2.0780   -0.1630 C   0  0  0  0  0  0  0  0  0  0  0  0
   -1.7110   -0.9740   -0.1020 C   0  0  0  0  0  0  0  0  0  0  0  0
   -2.2450    0.3230    0.3790 C   0  0  0  0  0  0  0  0  0  0  0  0
   -1.6420    0.9860    1.4610 C   0  0  0  0  0  0  0  0  0  0  0  0
   -2.1420    2.2130    1.9050 C   0  0  0  0  0  0  0  0  0  0  0  0
   -3.2580    2.7930    1.2820 C   0  0  0  0  0  0  0  0  0  0  0  0
   -3.7690    4.0890    1.7640 C   0  0  0  0  0  0  0  0  0  0  0  0
   -4.7690    4.6340    1.2260 O   0  0  0  0  0  0  0  0  0  0  0  0
   -3.8690    2.1240    0.2090 C   0  0  0  0  0  0  0  0  0  0  0  0
   -3.3680    0.8970   -0.2370 C   0  0  0  0  0  0  0  0  0  0  0  0
   -0.3490   -1.1420   -0.4610 C   0  0  0  0  0  0  0  0  0  0  0  0
    0.6010   -0.0040   -0.4950 C   0  0  0  0  0  0  0  0  0  0  0  0
    1.8040   -0.0670    0.2270 C   0  0  0  0  0  0  0  0  0  0  0  0
    2.7050    1.0130    0.2130 C   0  0  0  0  0  0  0  0  0  0  0  0
    4.0050    0.9290    0.9850 C   0  0  1  0  0  0  0  0  0  0  0  0
    5.1750    0.7050    0.0230 C   0  0  0  0  0  0  0  0  0  0  0  0
    4.2160    2.1520    1.7610 N   0  0  0  0  0  0  0  0  0  0  0  0
    2.4000    2.1490   -0.5580 C   0  0  0  0  0  0  0  0  0  0  0  0
    1.2100    2.2100   -1.2860 C   0  0  0  0  0  0  0  0  0  0  0  0
    0.3140    1.1390   -1.2580 C   0  0  0  0  0  0  0  0  0  0  0  0
    0.1120   -2.4160   -0.8350 C   0  0  0  0  0  0  0  0  0  0  0  0
   -1.4240   -6.2120   -0.3710 H   0  0  0  0  0  0  0  0  0  0  0  0
   -0.3320   -6.7820   -1.6890 H   0  0  0  0  0  0  0  0  0  0  0  0
   -1.8070   -5.8330   -2.1110 H   0  0  0  0  0  0  0  0  0  0  0  0
   -2.8020   -4.1620   -0.5750 H   0  0  0  0  0  0  0  0  0  0  0  0
   -3.6190   -1.9710    0.1110 H   0  0  0  0  0  0  0  0  0  0  0  0
   -0.7870    0.5510    1.9630 H   0  0  0  0  0  0  0  0  0  0  0  0
   -1.6590    2.7090    2.7380 H   0  0  0  0  0  0  0  0  0  0  0  0
   -4.7330    2.5490   -0.2880 H   0  0  0  0  0  0  0  0  0  0  0  0
   -3.8480    0.4010   -1.0720 H   0  0  0  0  0  0  0  0  0  0  0  0
    2.0310   -0.9510    0.8110 H   0  0  0  0  0  0  0  0  0  0  0  0
    3.9710    0.0640    1.6880 H   0  0  0  0  0  0  0  0  0  0  0  0
    5.2880    1.5700   -0.6660 H   0  0  0  0  0  0  0  0  0  0  0  0
    5.0070   -0.2160   -0.5760 H   0  0  0  0  0  0  0  0  0  0  0  0
    6.1190    0.5810    0.5950 H   0  0  0  0  0  0  0  0  0  0  0  0
    5.0800    2.0310    2.3400 H   0  0  0  0  0  0  0  0  0  0  0  0
    3.0850    2.9860   -0.5960 H   0  0  0  0  0  0  0  0  0  0  0  0
    0.9830    3.0880   -1.8770 H   0  0  0  0  0  0  0  0  0  0  0  0
   -0.6000    1.1990   -1.8360 H   0  0  0  0  0  0  0  0  0  0  0  0
    1.1500   -2.5550   -1.1140 H   0  0  0  0  0  0  0  0  0  0  0  0
    3.2040   -2.5520   12.4750 C   0  0  0  0  0  0  0  0  0  0  0  0
    3.2860   -3.0890   11.1590 O   0  0  0  0  0  0  0  0  0  0  0  0
    3.2140   -2.3240    9.9850 C   0  0  0  0  0  0  0  0  0  0  0  0
    3.0460   -0.9290   10.0040 C   0  0  0  0  0  0  0  0  0  0  0  0
    2.9850   -0.2110    8.8090 C   0  0  0  0  0  0  0  0  0  0  0  0
    3.0910   -0.8650    7.5710 C   0  0  0  0  0  0  0  0  0  0  0  0
    3.0890   -0.0500    6.3320 C   0  0  0  0  0  0  0  0  0  0  0  0
    4.1430   -0.1510    5.4100 C   0  0  0  0  0  0  0  0  0  0  0  0
    4.1340    0.6120    4.2390 C   0  0  0  0  0  0  0  0  0  0  0  0
    3.0760    1.4960    3.9760 C   0  0  0  0  0  0  0  0  0  0  0  0
    3.0830    2.2910    2.7350 C   0  0  0  0  0  0  0  0  0  0  0  0
    2.1480    3.0930    2.4710 O   0  0  0  0  0  0  0  0  0  0  0  0
    2.0280    1.6080    4.9050 C   0  0  0  0  0  0  0  0  0  0  0  0
    2.0370    0.8430    6.0750 C   0  0  0  0  0  0  0  0  0  0  0  0
    3.2360   -2.2760    7.5440 C   0  0  0  0  0  0  0  0  0  0  0  0
    3.2740   -3.0380    6.2730 C   0  0  0  0  0  0  0  0  0  0  0  0
    4.3430   -3.9080    6.0020 C   0  0  0  0  0  0  0  0  0  0  0  0
    4.3960   -4.6240    4.7940 C   0  0  0  0  0  0  0  0  0  0  0  0
    5.5470   -5.5690    4.5190 C   0  0  1  0  0  0  0  0  0  0  0  0
    5.0860   -7.0200    4.6760 C   0  0  0  0  0  0  0  0  0  0  0  0
    6.0750   -5.3490    3.1710 N   0  0  0  0  0  0  0  0  0  0  0  0
    3.3480   -4.4810    3.8670 C   0  0  0  0  0  0  0  0  0  0  0  0
    2.2780   -3.6260    4.1370 C   0  0  0  0  0  0  0  0  0  0  0  0
    2.2380   -2.9080    5.3340 C   0  0  0  0  0  0  0  0  0  0  0  0
    3.3080   -2.9840    8.7560 C   0  0  0  0  0  0  0  0  0  0  0  0
    4.0340   -1.8340   12.6470 H   0  0  0  0  0  0  0  0  0  0  0  0
    3.2910   -3.3780   13.2100 H   0  0  0  0  0  0  0  0  0  0  0  0
    2.2260   -2.0480   12.6210 H   0  0  0  0  0  0  0  0  0  0  0  0
    2.9690   -0.3890   10.9370 H   0  0  0  0  0  0  0  0  0  0  0  0
    2.8780    0.8670    8.8510 H   0  0  0  0  0  0  0  0  0  0  0  0
    4.9750   -0.8180    5.5980 H   0  0  0  0  0  0  0  0  0  0  0  0
    4.9550    0.5150    3.5390 H   0  0  0  0  0  0  0  0  0  0  0  0
    1.2010    2.2830    4.7270 H   0  0  0  0  0  0  0  0  0  0  0  0
    1.2150    0.9370    6.7750 H   0  0  0  0  0  0  0  0  0  0  0  0
    5.1410   -4.0150    6.7280 H   0  0  0  0  0  0  0  0  0  0  0  0
    6.3660   -5.3890    5.2540 H   0  0  0  0  0  0  0  0  0  0  0  0
    4.3060   -7.2680    3.9240 H   0  0  0  0  0  0  0  0  0  0  0  0
    4.6720   -7.1820    5.6940 H   0  0  0  0  0  0  0  0  0  0  0  0
    5.9460   -7.7100    4.5360 H   0  0  0  0  0  0  0  0  0  0  0  0
    6.9140   -5.9610    3.0410 H   0  0  0  0  0  0  0  0  0  0  0  0
    3.3590   -5.0340    2.9360 H   0  0  0  0  0  0  0  0  0  0  0  0
    1.4750   -3.5220    3.4190 H   0  0  0  0  0  0  0  0  0  0  0  0
    1.3950   -2.2570    5.5330 H   0  0  0  0  0  0  0  0  0  0  0  0
    3.4160   -4.0620    8.7480 H   0  0  0  0  0  0  0  0  0  0  0  0
   16.6160   -1.1770    6.2370 C   0  0  0  0  0  0  0  0  0  0  0  0
   15.5420   -1.7800    6.9500 O   0  0  0  0  0  0  0  0  0  0  0  0
   14.2750   -2.0370    6.4050 C   0  0  0  0  0  0  0  0  0  0  0  0
   13.9450   -1.7130    5.0790 C   0  0  0  0  0  0  0  0  0  0  0  0
   12.6730   -1.9950    4.5800 C   0  0  0  0  0  0  0  0  0  0  0  0
   11.7030   -2.6050    5.3910 C   0  0  0  0  0  0  0  0  0  0  0  0
   10.3880   -2.9460    4.7940 C   0  0  0  0  0  0  0  0  0  0  0  0
    9.9000   -4.2620    4.8470 C   0  0  0  0  0  0  0  0  0  0  0  0
    8.6570   -4.5780    4.2910 C   0  0  0  0  0  0  0  0  0  0  0  0
    7.8870   -3.5860    3.6670 C   0  0  0  0  0  0  0  0  0  0  0  0
    6.5770   -3.9380    3.0880 C   0  0  0  0  0  0  0  0  0  0  0  0
    5.8620   -3.0700    2.5200 O   0  0  0  0  0  0  0  0  0  0  0  0
    8.3800   -2.2720    3.6010 C   0  0  0  0  0  0  0  0  0  0  0  0
    9.6230   -1.9560    4.1580 C   0  0  0  0  0  0  0  0  0  0  0  0
   12.0210   -2.9130    6.7380 C   0  0  0  0  0  0  0  0  0  0  0  0
   11.0200   -3.4850    7.6720 C   0  0  0  0  0  0  0  0  0  0  0  0
   11.3000   -4.6740    8.3650 C   0  0  0  0  0  0  0  0  0  0  0  0
   10.3520   -5.2320    9.2410 C   0  0  0  0  0  0  0  0  0  0  0  0
   10.6700   -6.5080    9.9930 C   0  0  1  0  0  0  0  0  0  0  0  0
   10.9690   -6.1920   11.4610 C   0  0  0  0  0  0  0  0  0  0  0  0
    9.5520   -7.4480    9.8960 N   0  0  0  0  0  0  0  0  0  0  0  0
    9.1270   -4.5690    9.4370 C   0  0  0  0  0  0  0  0  0  0  0  0
    8.8500   -3.3810    8.7580 C   0  0  0  0  0  0  0  0  0  0  0  0
    9.7910   -2.8390    7.8810 C   0  0  0  0  0  0  0  0  0  0  0  0
   13.3100   -2.6340    7.2220 C   0  0  0  0  0  0  0  0  0  0  0  0
   16.8940   -1.8030    5.3630 H   0  0  0  0  0  0  0  0  0  0  0  0
   17.4960   -1.0940    6.9080 H   0  0  0  0  0  0  0  0  0  0  0  0
   16.3280   -0.1580    5.9020 H   0  0  0  0  0  0  0  0  0  0  0  0
   14.6680   -1.2500    4.4210 H   0  0  0  0  0  0  0  0  0  0  0  0
   12.4510   -1.7560    3.5470 H   0  0  0  0  0  0  0  0  0  0  0  0
   10.4840   -5.0450    5.3150 H   0  0  0  0  0  0  0  0  0  0  0  0
    8.2980   -5.5980    4.3480 H   0  0  0  0  0  0  0  0  0  0  0  0
    7.8060   -1.4880    3.1230 H   0  0  0  0  0  0  0  0  0  0  0  0
    9.9820   -0.9360    4.1060 H   0  0  0  0  0  0  0  0  0  0  0  0
   12.2500   -5.1710    8.2110 H   0  0  0  0  0  0  0  0  0  0  0  0
   11.5750   -6.9880    9.5550 H   0  0  0  0  0  0  0  0  0  0  0  0
   10.0750   -5.7620   11.9610 H   0  0  0  0  0  0  0  0  0  0  0  0
   11.8080   -5.4670   11.5330 H   0  0  0  0  0  0  0  0  0  0  0  0
   11.2640   -7.1200   11.9970 H   0  0  0  0  0  0  0  0  0  0  0  0
    9.8320   -8.3430   10.3590 H   0  0  0  0  0  0  0  0  0  0  0  0
    8.3880   -4.9720   10.1180 H   0  0  0  0  0  0  0  0  0  0  0  0
    7.9060   -2.8770    8.9150 H   0  0  0  0  0  0  0  0  0  0  0  0
    9.5650   -1.9110    7.3690 H   0  0  0  0  0  0  0  0  0  0  0  0
   13.5640   -2.8630    8.2510 H   0  0  0  0  0  0  0  0  0  0  0  0
   14.9220  -15.6710    3.4570 C   0  0  0  0  0  0  0  0  0  0  0  0
   15.3580  -14.4910    4.1250 O   0  0  0  0  0  0  0  0  0  0  0  0
   14.4990  -13.5370    4.6900 C   0  0  0  0  0  0  0  0  0  0  0  0
   13.1000  -13.6620    4.6430 C   0  0  0  0  0  0  0  0  0  0  0  0
   12.2870  -12.6890    5.2250 C   0  0  0  0  0  0  0  0  0  0  0  0
   12.8480  -11.5720    5.8660 C   0  0  0  0  0  0  0  0  0  0  0  0
   11.9430  -10.6020    6.5280 C   0  0  0  0  0  0  0  0  0  0  0  0
   12.1090  -10.2830    7.8860 C   0  0  0  0  0  0  0  0  0  0  0  0
   11.2600   -9.3610    8.5040 C   0  0  0  0  0  0  0  0  0  0  0  0
   10.2260   -8.7510    7.7790 C   0  0  0  0  0  0  0  0  0  0  0  0
    9.3420   -7.7790    8.4480 C   0  0  0  0  0  0  0  0  0  0  0  0
    8.4040   -7.2150    7.8240 O   0  0  0  0  0  0  0  0  0  0  0  0
   10.0500   -9.0800    6.4240 C   0  0  0  0  0  0  0  0  0  0  0  0
   10.9000  -10.0010    5.8050 C   0  0  0  0  0  0  0  0  0  0  0  0
   14.2590  -11.4280    5.8960 C   0  0  0  0  0  0  0  0  0  0  0  0
   14.9150  -10.2360    6.4850 C   0  0  0  0  0  0  0  0  0  0  0  0
   15.8950  -10.3890    7.4800 C   0  0  0  0  0  0  0  0  0  0  0  0
   16.5120   -9.2650    8.0550 C   0  0  0  0  0  0  0  0  0  0  0  0
   17.5760   -9.4430    9.1180 C   0  0  1  0  0  0  0  0  0  0  0  0
   18.9620   -9.1660    8.5270 C   0  0  0  0  0  0  0  0  0  0  0  0
   17.3220   -8.5470   10.2480 N   0  0  0  0  0  0  0  0  0  0  0  0
   16.1570   -7.9820    7.6020 C   0  0  0  0  0  0  0  0  0  0  0  0
   15.1920   -7.8270    6.6060 C   0  0  0  0  0  0  0  0  0  0  0  0
   14.5740   -8.9460    6.0470 C   0  0  0  0  0  0  0  0  0  0  0  0
   15.0650  -12.4230    5.3150 C   0  0  0  0  0  0  0  0  0  0  0  0
   14.3370  -16.3090    4.1530 H   0  0  0  0  0  0  0  0  0  0  0  0
   15.8090  -16.2410    3.1130 H   0  0  0  0  0  0  0  0  0  0  0  0
   14.3060  -15.4040    2.5730 H   0  0  0  0  0  0  0  0  0  0  0  0
   12.6310  -14.5110    4.1660 H   0  0  0  0  0  0  0  0  0  0  0  0
   11.2110  -12.8190    5.1950 H   0  0  0  0  0  0  0  0  0  0  0  0
   12.8940  -10.7500    8.4670 H   0  0  0  0  0  0  0  0  0  0  0  0
   11.4100   -9.1260    9.5510 H   0  0  0  0  0  0  0  0  0  0  0  0
    9.2590   -8.6240    5.8420 H   0  0  0  0  0  0  0  0  0  0  0  0
   10.7550  -10.2340    4.7580 H   0  0  0  0  0  0  0  0  0  0  0  0
   16.1650  -11.3830    7.8150 H   0  0  0  0  0  0  0  0  0  0  0  0
   17.5670  -10.4930    9.4890 H   0  0  0  0  0  0  0  0  0  0  0  0
   19.0430   -8.1100    8.1920 H   0  0  0  0  0  0  0  0  0  0  0  0
   19.1480   -9.8360    7.6600 H   0  0  0  0  0  0  0  0  0  0  0  0
   19.7460   -9.3580    9.2900 H   0  0  0  0  0  0  0  0  0  0  0  0
   18.0280   -8.7480   10.9940 H   0  0  0  0  0  0  0  0  0  0  0  0
   16.6300   -7.1020    8.0200 H   0  0  0  0  0  0  0  0  0  0  0  0
   14.9250   -6.8350    6.2620 H   0  0  0  0  0  0  0  0  0  0  0  0
   13.8340   -8.8090    5.2680 H   0  0  0  0  0  0  0  0  0  0  0  0
   16.1440  -12.3220    5.3300 H   0  0  0  0  0  0  0  0  0  0  0  0
   14.8480  -16.7580   18.2730 C   0  0  0  0  0  0  0  0  0  0  0  0
   15.3570  -16.7900   16.9440 O   0  0  0  0  0  0  0  0  0  0  0  0
   15.4000  -15.6820   16.0840 C   0  0  0  0  0  0  0  0  0  0  0  0
   14.9300  -14.4150   16.4650 C   0  0  0  0  0  0  0  0  0  0  0  0
   14.9990  -13.3410   15.5760 C   0  0  0  0  0  0  0  0  0  0  0  0
   15.5380  -13.5070   14.2900 C   0  0  0  0  0  0  0  0  0  0  0  0
   15.6520  -12.3210   13.4070 C   0  0  0  0  0  0  0  0  0  0  0  0
   16.8910  -11.9590   12.8540 C   0  0  0  0  0  0  0  0  0  0  0  0
   16.9930  -10.8460   12.0150 C   0  0  0  0  0  0  0  0  0  0  0  0
   15.8610  -10.0710   11.7240 C   0  0  0  0  0  0  0  0  0  0  0  0
   15.9880   -8.9010   10.8350 C   0  0  0  0  0  0  0  0  0  0  0  0
   14.9900   -8.1860   10.5550 O   0  0  0  0  0  0  0  0  0  0  0  0
   14.6230  -10.4240   12.2880 C   0  0  0  0  0  0  0  0  0  0  0  0
   14.5210  -11.5380   13.1260 C   0  0  0  0  0  0  0  0  0  0  0  0
   15.9920  -14.7900   13.8900 C   0  0  0  0  0  0  0  0  0  0  0  0
   16.4990  -15.0540   12.5210 C   0  0  0  0  0  0  0  0  0  0  0  0
   17.7660  -15.6300   12.3360 C   0  0  0  0  0  0  0  0  0  0  0  0
   18.2610  -15.8710   11.0430 C   0  0  0  0  0  0  0  0  0  0  0  0
   19.6240  -16.5040   10.8560 C   0  0  1  0  0  0  0  0  0  0  0  0
   19.4700  -17.9670   10.4300 C   0  0  0  0  0  0  0  0  0  0  0  0
   20.3960  -15.7660    9.8550 N   0  0  0  0  0  0  0  0  0  0  0  0
   17.4590  -15.5520    9.9330 C   0  0  0  0  0  0  0  0  0  0  0  0
   16.1940  -14.9890   10.1130 C   0  0  0  0  0  0  0  0  0  0  0  0
   15.7130  -14.7420   11.4000 C   0  0  0  0  0  0  0  0  0  0  0  0
   15.9270  -15.8580   14.8010 C   0  0  0  0  0  0  0  0  0  0  0  0
   15.4330  -16.0430   18.8890 H   0  0  0  0  0  0  0  0  0  0  0  0
   14.9370  -17.7690   18.7200 H   0  0  0  0  0  0  0  0  0  0  0  0
   13.7760  -16.4660   18.2640 H   0  0  0  0  0  0  0  0  0  0  0  0
   14.5150  -14.2460   17.4490 H   0  0  0  0  0  0  0  0  0  0  0  0
   14.6500  -12.3690   15.9010 H   0  0  0  0  0  0  0  0  0  0  0  0
   17.7800  -12.5380   13.0740 H   0  0  0  0  0  0  0  0  0  0  0  0
   17.9580  -10.5890   11.5950 H   0  0  0  0  0  0  0  0  0  0  0  0
   13.7340   -9.8410   12.0800 H   0  0  0  0  0  0  0  0  0  0  0  0
   13.5570  -11.8000   13.5440 H   0  0  0  0  0  0  0  0  0  0  0  0
   18.3710  -15.8780   13.2000 H   0  0  0  0  0  0  0  0  0  0  0  0
   20.1840  -16.4870   11.8190 H   0  0  0  0  0  0  0  0  0  0  0  0
   18.9650  -18.0380    9.4430 H   0  0  0  0  0  0  0  0  0  0  0  0
   18.8710  -18.5240   11.1830 H   0  0  0  0  0  0  0  0  0  0  0  0
   20.4680  -18.4490   10.3550 H   0  0  0  0  0  0  0  0  0  0  0  0
   21.3550  -16.1820    9.8050 H   0  0  0  0  0  0  0  0  0  0  0  0
   17.8140  -15.7420    8.9270 H   0  0  0  0  0  0  0  0  0  0  0  0
   15.5830  -14.7470    9.2530 H   0  0  0  0  0  0  0  0  0  0  0  0
   14.7260  -14.3140   11.5230 H   0  0  0  0  0  0  0  0  0  0  0  0
   16.2690  -16.8430   14.5060 H   0  0  0  0  0  0  0  0  0  0  0  0
   28.7180  -11.5900   17.0130 C   0  0  0  0  0  0  0  0  0  0  0  0
   27.6640  -12.5350   17.1610 O   0  0  0  0  0  0  0  0  0  0  0  0
   26.6530  -12.7500   16.2130 C   0  0  0  0  0  0  0  0  0  0  0  0
   26.5860  -12.0320   15.0070 C   0  0  0  0  0  0  0  0  0  0  0  0
   25.5630  -12.2850   14.0920 C   0  0  0  0  0  0  0  0  0  0  0  0
   24.5860  -13.2590   14.3580 C   0  0  0  0  0  0  0  0  0  0  0  0
   23.5600  -13.5380   13.3240 C   0  0  0  0  0  0  0  0  0  0  0  0
   23.3760  -14.8420   12.8360 C   0  0  0  0  0  0  0  0  0  0  0  0
   22.4020  -15.1040   11.8690 C   0  0  0  0  0  0  0  0  0  0  0  0
   21.6030  -14.0650   11.3670 C   0  0  0  0  0  0  0  0  0  0  0  0
   20.5800  -14.3610   10.3480 C   0  0  0  0  0  0  0  0  0  0  0  0
   19.8480  -13.4500    9.8770 O   0  0  0  0  0  0  0  0  0  0  0  0
   21.7960  -12.7580   11.8450 C   0  0  0  0  0  0  0  0  0  0  0  0
   22.7700  -12.4970   12.8130 C   0  0  0  0  0  0  0  0  0  0  0  0
   24.6340  -13.9700   15.5840 C   0  0  0  0  0  0  0  0  0  0  0  0
   23.5910  -14.9540   15.9640 C   0  0  0  0  0  0  0  0  0  0  0  0
   23.9520  -16.2620   16.3230 C   0  0  0  0  0  0  0  0  0  0  0  0
   22.9700  -17.2060   16.6710 C   0  0  0  0  0  0  0  0  0  0  0  0
   23.3720  -18.6110   17.0690 C   0  0  1  0  0  0  0  0  0  0  0  0
   23.2360  -18.7870   18.5840 C   0  0  0  0  0  0  0  0  0  0  0  0
   22.5440  -19.5960   16.3690 N   0  0  0  0  0  0  0  0  0  0  0  0
   21.6190  -16.8160   16.6800 C   0  0  0  0  0  0  0  0  0  0  0  0
   21.2570  -15.5130   16.3340 C   0  0  0  0  0  0  0  0  0  0  0  0
   22.2360  -14.5840   15.9790 C   0  0  0  0  0  0  0  0  0  0  0  0
   25.6770  -13.7120   16.4900 C   0  0  0  0  0  0  0  0  0  0  0  0
   29.3270  -11.8340   16.1160 H   0  0  0  0  0  0  0  0  0  0  0  0
   29.3720  -11.6320   17.9080 H   0  0  0  0  0  0  0  0  0  0  0  0
   28.3020  -10.5640   16.9250 H   0  0  0  0  0  0  0  0  0  0  0  0
   27.3240  -11.2810   14.7630 H   0  0  0  0  0  0  0  0  0  0  0  0
   25.5460  -11.7340   13.1600 H   0  0  0  0  0  0  0  0  0  0  0  0
   23.9890  -15.6570   13.2020 H   0  0  0  0  0  0  0  0  0  0  0  0
   22.2730  -16.1180   11.5110 H   0  0  0  0  0  0  0  0  0  0  0  0
   21.1950  -11.9380   11.4720 H   0  0  0  0  0  0  0  0  0  0  0  0
   22.8980  -11.4840   13.1760 H   0  0  0  0  0  0  0  0  0  0  0  0
   24.9970  -16.5490   16.3190 H   0  0  0  0  0  0  0  0  0  0  0  0
   24.4380  -18.7890   16.7990 H   0  0  0  0  0  0  0  0  0  0  0  0
   22.1760  -18.6760   18.8990 H   0  0  0  0  0  0  0  0  0  0  0  0
   23.8530  -18.0310   19.1140 H   0  0  0  0  0  0  0  0  0  0  0  0
   23.5910  -19.7970   18.8820 H   0  0  0  0  0  0  0  0  0  0  0  0
   22.8960  -20.5520   16.6070 H   0  0  0  0  0  0  0  0  0  0  0  0
   20.8460  -17.5220   16.9590 H   0  0  0  0  0  0  0  0  0  0  0  0
   20.2150  -15.2210   16.3450 H   0  0  0  0  0  0  0  0  0  0  0  0
   21.9400  -13.5740   15.7230 H   0  0  0  0  0  0  0  0  0  0  0  0
   25.7220  -14.2480   17.4310 H   0  0  0  0  0  0  0  0  0  0  0  0
   -3.0480    3.8430    3.9500 C   0  0  0  0  0  0  0  0  0  0  0  0
   -3.0970    4.7800    2.9130 O   0  0  0  0  0  0  0  0  0  0  0  0
   -4.0760    3.5310    4.2350 H   0  0  0  0  0  0  0  0  0  0  0  0
   -2.5570    4.3030    4.8330 H   0  0  0  0  0  0  0  0  0  0  0  0
   -2.4590    2.9540    3.6360 H   0  0  0  0  0  0  0  0  0  0  0  0
   25.0020  -17.0060   13.0890 C   0  0  0  0  0  0  0  0  0  0  0  0
   23.9830  -18.1550   13.0800 C   0  0  0  0  0  0  0  0  0  0  0  0
   22.7280  -17.7010   12.3090 C   0  0  0  0  0  0  0  0  0  0  0  0
   24.6220  -19.3810   12.4010 C   0  0  0  0  0  0  0  0  0  0  0  0
   23.6580  -18.4460   14.4470 O   0  0  0  0  0  0  0  0  0  0  0  0
   22.7640  -19.4290   14.8950 C   0  0  0  0  0  0  0  0  0  0  0  0
   22.1410  -20.1750   14.0940 O   0  0  0  0  0  0  0  0  0  0  0  0
   25.2990  -16.7270   12.0540 H   0  0  0  0  0  0  0  0  0  0  0  0
   24.5690  -16.1100   13.5850 H   0  0  0  0  0  0  0  0  0  0  0  0
   25.9140  -17.3030   13.6500 H   0  0  0  0  0  0  0  0  0  0  0  0
   22.2310  -16.8640   12.8440 H   0  0  0  0  0  0  0  0  0  0  0  0
   21.9980  -18.5290   12.2010 H   0  0  0  0  0  0  0  0  0  0  0  0
   23.0010  -17.3570   11.2870 H   0  0  0  0  0  0  0  0  0  0  0  0
   25.4810  -19.7480   13.0020 H   0  0  0  0  0  0  0  0  0  0  0  0
   23.8930  -20.2100   12.2930 H   0  0  0  0  0  0  0  0  0  0  0  0
   24.9870  -19.1190   11.3840 H   0  0  0  0  0  0  0  0  0  0  0  0
  1  2  1  0  0  0  0
  1 26  1  0  0  0  0
  2  3  1  0  0  0  0
  3 25  2  0  0  0  0
  3  4  1  0  0  0  0
  4  5  2  0  0  0  0
  5  6  1  0  0  0  0
  5 30  1  0  0  0  0
  6  7  1  0  0  0  0
  7  8  1  0  0  0  0
  8  9  2  0  0  0  0
  8 31  1  0  0  0  0
  9 32  1  0  0  0  0
 10 11  1  0  0  0  0
 10  9  1  0  0  0  0
 11266  1  0  0  0  0
 12 11  2  0  0  0  0
 13 10  2  0  0  0  0
 14 13  1  0  0  0  0
 14  7  2  0  0  0  0
 15  6  2  0  0  0  0
 16 15  1  0  0  0  0
 16 17  1  0  0  0  0
 17 35  1  0  0  0  0
 18 17  2  0  0  0  0
 18 19  1  0  0  0  0
 19 36  1  1  0  0  0
 19 21  1  0  0  0  0
 20 39  1  0  0  0  0
 20 19  1  0  0  0  0
 21 40  1  0  0  0  0
 21 55  1  0  0  0  0
 22 18  1  0  0  0  0
 23 24  1  0  0  0  0
 23 22  2  0  0  0  0
 24 16  2  0  0  0  0
 25 15  1  0  0  0  0
 27  1  1  0  0  0  0
 28  1  1  0  0  0  0
 29  4  1  0  0  0  0
 33 13  1  0  0  0  0
 34 14  1  0  0  0  0
 37 20  1  0  0  0  0
 38 20  1  0  0  0  0
 41 22  1  0  0  0  0
 42 23  1  0  0  0  0
 43 24  1  0  0  0  0
 44 25  1  0  0  0  0
 45 72  1  0  0  0  0
 45 70  1  0  0  0  0
 45 71  1  0  0  0  0
 46 45  1  0  0  0  0
 47 48  1  0  0  0  0
 47 46  1  0  0  0  0
 48 73  1  0  0  0  0
 49 74  1  0  0  0  0
 49 48  2  0  0  0  0
 50 49  1  0  0  0  0
 51 50  1  0  0  0  0
 52 75  1  0  0  0  0
 52 51  2  0  0  0  0
 53 52  1  0  0  0  0
 54 53  2  0  0  0  0
 54 57  1  0  0  0  0
 55 54  1  0  0  0  0
 56 55  2  0  0  0  0
 57 58  2  0  0  0  0
 58 51  1  0  0  0  0
 58 78  1  0  0  0  0
 59 50  2  0  0  0  0
 59 69  1  0  0  0  0
 60 59  1  0  0  0  0
 61 60  1  0  0  0  0
 61 79  1  0  0  0  0
 62 61  2  0  0  0  0
 63 64  1  0  0  0  0
 63 62  1  0  0  0  0
 63 80  1  1  0  0  0
 64 82  1  0  0  0  0
 65 63  1  0  0  0  0
 66 67  2  0  0  0  0
 66 62  1  0  0  0  0
 67 68  1  0  0  0  0
 68 87  1  0  0  0  0
 68 60  2  0  0  0  0
 69 47  2  0  0  0  0
 76 53  1  0  0  0  0
 77 57  1  0  0  0  0
 81 64  1  0  0  0  0
 83 64  1  0  0  0  0
 84 65  1  0  0  0  0
 85 66  1  0  0  0  0
 86 67  1  0  0  0  0
 88 69  1  0  0  0  0
 89115  1  0  0  0  0
 89 90  1  0  0  0  0
 91 90  1  0  0  0  0
 91113  1  0  0  0  0
 92 91  2  0  0  0  0
 93 92  1  0  0  0  0
 93 94  2  0  0  0  0
 94103  1  0  0  0  0
 95 96  1  0  0  0  0
 95 94  1  0  0  0  0
 96119  1  0  0  0  0
 97120  1  0  0  0  0
 97 96  2  0  0  0  0
 98 97  1  0  0  0  0
 99 65  1  0  0  0  0
 99 98  1  0  0  0  0
100 99  2  0  0  0  0
101 98  2  0  0  0  0
101102  1  0  0  0  0
102 95  2  0  0  0  0
103113  2  0  0  0  0
103104  1  0  0  0  0
104112  2  0  0  0  0
104105  1  0  0  0  0
105106  2  0  0  0  0
106110  1  0  0  0  0
106107  1  0  0  0  0
107124  1  6  0  0  0
107108  1  0  0  0  0
108126  1  0  0  0  0
108125  1  0  0  0  0
108127  1  0  0  0  0
109107  1  0  0  0  0
109128  1  0  0  0  0
110129  1  0  0  0  0
111130  1  0  0  0  0
111110  2  0  0  0  0
112111  1  0  0  0  0
113132  1  0  0  0  0
114 89  1  0  0  0  0
116 89  1  0  0  0  0
117 92  1  0  0  0  0
118 93  1  0  0  0  0
121101  1  0  0  0  0
122102  1  0  0  0  0
123105  1  0  0  0  0
131112  1  0  0  0  0
133134  1  0  0  0  0
133158  1  0  0  0  0
134135  1  0  0  0  0
135157  1  0  0  0  0
136135  2  0  0  0  0
136137  1  0  0  0  0
137138  2  0  0  0  0
138147  1  0  0  0  0
138139  1  0  0  0  0
139140  1  0  0  0  0
140163  1  0  0  0  0
140141  2  0  0  0  0
141164  1  0  0  0  0
142143  1  0  0  0  0
142141  1  0  0  0  0
143109  1  0  0  0  0
144143  2  0  0  0  0
145142  2  0  0  0  0
146145  1  0  0  0  0
146139  2  0  0  0  0
147148  1  0  0  0  0
148149  1  0  0  0  0
149167  1  0  0  0  0
149150  2  0  0  0  0
150151  1  0  0  0  0
151168  1  1  0  0  0
151153  1  0  0  0  0
152151  1  0  0  0  0
152171  1  0  0  0  0
153187  1  0  0  0  0
153172  1  0  0  0  0
154173  1  0  0  0  0
154150  1  0  0  0  0
155154  2  0  0  0  0
156148  2  0  0  0  0
156155  1  0  0  0  0
157176  1  0  0  0  0
157147  2  0  0  0  0
159133  1  0  0  0  0
160133  1  0  0  0  0
161136  1  0  0  0  0
162137  1  0  0  0  0
165145  1  0  0  0  0
166146  1  0  0  0  0
169152  1  0  0  0  0
170152  1  0  0  0  0
174155  1  0  0  0  0
175156  1  0  0  0  0
177203  1  0  0  0  0
177202  1  0  0  0  0
178177  1  0  0  0  0
179180  1  0  0  0  0
179178  1  0  0  0  0
180205  1  0  0  0  0
181206  1  0  0  0  0
181180  2  0  0  0  0
182181  1  0  0  0  0
183182  1  0  0  0  0
184207  1  0  0  0  0
184183  2  0  0  0  0
185184  1  0  0  0  0
186185  2  0  0  0  0
186189  1  0  0  0  0
187186  1  0  0  0  0
188187  2  0  0  0  0
189190  2  0  0  0  0
190183  1  0  0  0  0
190210  1  0  0  0  0
191182  2  0  0  0  0
191201  1  0  0  0  0
192191  1  0  0  0  0
193192  1  0  0  0  0
193211  1  0  0  0  0
194193  2  0  0  0  0
195194  1  0  0  0  0
195212  1  1  0  0  0
196195  1  0  0  0  0
196214  1  0  0  0  0
197231  1  0  0  0  0
197195  1  0  0  0  0
198199  2  0  0  0  0
198194  1  0  0  0  0
199200  1  0  0  0  0
200219  1  0  0  0  0
200192  2  0  0  0  0
201179  2  0  0  0  0
204177  1  0  0  0  0
208185  1  0  0  0  0
209189  1  0  0  0  0
213196  1  0  0  0  0
215196  1  0  0  0  0
216197  1  0  0  0  0
217198  1  0  0  0  0
218199  1  0  0  0  0
220201  1  0  0  0  0
221222  1  0  0  0  0
221247  1  0  0  0  0
223245  1  0  0  0  0
223222  1  0  0  0  0
224223  2  0  0  0  0
225226  2  0  0  0  0
225224  1  0  0  0  0
226235  1  0  0  0  0
227226  1  0  0  0  0
228251  1  0  0  0  0
228227  1  0  0  0  0
229228  2  0  0  0  0
230233  2  0  0  0  0
230229  1  0  0  0  0
231230  1  0  0  0  0
232231  2  0  0  0  0
233234  1  0  0  0  0
234254  1  0  0  0  0
234227  2  0  0  0  0
235236  1  0  0  0  0
235245  2  0  0  0  0
236244  2  0  0  0  0
236237  1  0  0  0  0
237238  2  0  0  0  0
238242  1  0  0  0  0
238239  1  0  0  0  0
239256  1  6  0  0  0
239240  1  0  0  0  0
240259  1  0  0  0  0
240257  1  0  0  0  0
240258  1  0  0  0  0
241260  1  0  0  0  0
241239  1  0  0  0  0
242261  1  0  0  0  0
243262  1  0  0  0  0
243242  2  0  0  0  0
244243  1  0  0  0  0
245264  1  0  0  0  0
246221  1  0  0  0  0
248221  1  0  0  0  0
249224  1  0  0  0  0
250225  1  0  0  0  0
252229  1  0  0  0  0
253233  1  0  0  0  0
255237  1  0  0  0  0
263244  1  0  0  0  0
265267  1  0  0  0  0
265268  1  0  0  0  0
266265  1  0  0  0  0
269265  1  0  0  0  0
270278  1  0  0  0  0
270279  1  0  0  0  0
271270  1  0  0  0  0
271274  1  0  0  0  0
272280  1  0  0  0  0
272271  1  0  0  0  0
273283  1  0  0  0  0
273271  1  0  0  0  0
274275  1  0  0  0  0
275241  1  0  0  0  0
276275  2  0  0  0  0
277270  1  0  0  0  0
281272  1  0  0  0  0
282272  1  0  0  0  0
284273  1  0  0  0  0
285273  1  0  0  0  0
M  END
$$$$
