mop_dimer_mbuild.pdb
 OpenBabel08092309313D

109114  0  0  1  0  0  0  0  0999 V2000
   -2.7230   -5.0480   -0.9630 C   0  0  0  0  0  0  0  0  0  0  0  0
   -3.6120   -5.4150   -1.7770 O   0  0  0  0  0  0  0  0  0  0  0  0
   -2.4960   -3.6190   -0.6770 C   0  0  0  0  0  0  0  0  0  0  0  0
   -1.4980   -3.2450    0.2350 C   0  0  0  0  0  0  0  0  0  0  0  0
   -1.2680   -1.8960    0.5170 C   0  0  0  0  0  0  0  0  0  0  0  0
   -2.0260   -0.8980   -0.1160 C   0  0  0  0  0  0  0  0  0  0  0  0
   -1.7780    0.5350    0.1730 C   0  0  0  0  0  0  0  0  0  0  0  0
   -0.4900    1.1150    0.0520 C   0  0  0  0  0  0  0  0  0  0  0  0
   -0.3030    2.4600    0.4170 C   0  0  0  0  0  0  0  0  0  0  0  0
   -1.3700    3.2390    0.8720 C   0  0  0  0  0  0  0  0  0  0  0  0
   -1.1190    4.5770    1.2140 O   0  0  0  0  0  0  0  0  0  0  0  0
   -2.1080    5.4840    1.6900 C   0  0  0  0  0  0  0  0  0  0  0  0
   -2.6490    2.6650    0.9660 C   0  0  0  0  0  0  0  0  0  0  0  0
   -2.8470    1.3280    0.6200 C   0  0  0  0  0  0  0  0  0  0  0  0
    0.6660    0.3590   -0.4870 C   0  0  0  0  0  0  0  0  0  0  0  0
    0.5890   -0.2560   -1.7460 C   0  0  0  0  0  0  0  0  0  0  0  0
    1.6740   -0.9770   -2.2450 C   0  0  0  0  0  0  0  0  0  0  0  0
    2.8490   -1.0860   -1.4970 C   0  0  0  0  0  0  0  0  0  0  0  0
    2.9520   -0.4670   -0.2390 C   0  0  0  0  0  0  0  0  0  0  0  0
    1.8520    0.2570    0.2580 C   0  0  0  0  0  0  0  0  0  0  0  0
    4.2330   -0.6010    0.5680 C   0  0  2  0  0  0  0  0  0  0  0  0
    4.0000   -1.3250    1.8200 N   0  0  0  0  0  0  0  0  0  0  0  0
    4.8610    0.7670    0.8540 C   0  0  0  0  0  0  0  0  0  0  0  0
   -3.0340   -1.2730   -1.0200 C   0  0  0  0  0  0  0  0  0  0  0  0
   -3.2650   -2.6220   -1.3010 C   0  0  0  0  0  0  0  0  0  0  0  0
   -0.8980   -3.9980    0.7310 H   0  0  0  0  0  0  0  0  0  0  0  0
   -0.5000   -1.6300    1.2330 H   0  0  0  0  0  0  0  0  0  0  0  0
    0.6770    2.9140    0.3270 H   0  0  0  0  0  0  0  0  0  0  0  0
   -1.6340    6.4680    1.8820 H   0  0  0  0  0  0  0  0  0  0  0  0
   -2.5460    5.1090    2.6390 H   0  0  0  0  0  0  0  0  0  0  0  0
   -2.9030    5.6160    0.9260 H   0  0  0  0  0  0  0  0  0  0  0  0
   -3.4950    3.2410    1.3130 H   0  0  0  0  0  0  0  0  0  0  0  0
   -3.8380    0.9020    0.7220 H   0  0  0  0  0  0  0  0  0  0  0  0
   -0.3120   -0.1750   -2.3430 H   0  0  0  0  0  0  0  0  0  0  0  0
    1.6060   -1.4530   -3.2150 H   0  0  0  0  0  0  0  0  0  0  0  0
    3.6770   -1.6530   -1.9020 H   0  0  0  0  0  0  0  0  0  0  0  0
    1.9080    0.7300    1.2300 H   0  0  0  0  0  0  0  0  0  0  0  0
    4.9820   -1.1770   -0.0190 H   0  0  0  0  0  0  0  0  0  0  0  0
    3.5960   -2.2630    1.5930 H   0  0  0  0  0  0  0  0  0  0  0  0
    4.2040    1.3830    1.5030 H   0  0  0  0  0  0  0  0  0  0  0  0
    5.0410    1.3110   -0.0980 H   0  0  0  0  0  0  0  0  0  0  0  0
    5.8360    0.6320    1.3700 H   0  0  0  0  0  0  0  0  0  0  0  0
   -3.6300   -0.5180   -1.5180 H   0  0  0  0  0  0  0  0  0  0  0  0
   -4.0420   -2.8840   -2.0080 H   0  0  0  0  0  0  0  0  0  0  0  0
    2.9940   -0.5920    2.6560 C   0  0  0  0  0  0  0  0  0  0  0  0
    1.8320   -0.4200    2.2000 O   0  0  0  0  0  0  0  0  0  0  0  0
    3.3720   -0.0860    3.9890 C   0  0  0  0  0  0  0  0  0  0  0  0
    4.6740   -0.2960    4.4660 C   0  0  0  0  0  0  0  0  0  0  0  0
    5.0500    0.1780    5.7260 C   0  0  0  0  0  0  0  0  0  0  0  0
    4.1320    0.8780    6.5250 C   0  0  0  0  0  0  0  0  0  0  0  0
    4.5300    1.3910    7.8580 C   0  0  0  0  0  0  0  0  0  0  0  0
    5.6680    2.2190    8.0370 C   0  0  0  0  0  0  0  0  0  0  0  0
    6.0390    2.6080    9.3350 C   0  0  0  0  0  0  0  0  0  0  0  0
    5.2920    2.2130   10.4490 C   0  0  0  0  0  0  0  0  0  0  0  0
    5.7120    2.6400   11.7180 O   0  0  0  0  0  0  0  0  0  0  0  0
    5.0490    2.3160   12.9360 C   0  0  0  0  0  0  0  0  0  0  0  0
    4.1530    1.4130   10.2630 C   0  0  0  0  0  0  0  0  0  0  0  0
    3.7780    1.0080    8.9810 C   0  0  0  0  0  0  0  0  0  0  0  0
    6.4600    2.7240    6.8900 C   0  0  0  0  0  0  0  0  0  0  0  0
    5.8370    3.4370    5.8540 C   0  0  0  0  0  0  0  0  0  0  0  0
    6.5840    3.9010    4.7710 C   0  0  0  0  0  0  0  0  0  0  0  0
    7.9600    3.6660    4.7140 C   0  0  0  0  0  0  0  0  0  0  0  0
    8.6060    2.9660    5.7470 C   0  0  0  0  0  0  0  0  0  0  0  0
    7.8450    2.4990    6.8360 C   0  0  0  0  0  0  0  0  0  0  0  0
   10.1020    2.7100    5.6690 C   0  0  2  0  0  0  0  0  0  0  0  0
   10.3930    1.2770    5.5830 N   0  0  0  0  0  0  0  0  0  0  0  0
   10.8410    3.3320    6.8580 C   0  0  0  0  0  0  0  0  0  0  0  0
    2.8250    1.0770    6.0530 C   0  0  0  0  0  0  0  0  0  0  0  0
    2.4480    0.6020    4.7930 C   0  0  0  0  0  0  0  0  0  0  0  0
    5.4000   -0.8290    3.8650 H   0  0  0  0  0  0  0  0  0  0  0  0
    6.0570   -0.0050    6.0790 H   0  0  0  0  0  0  0  0  0  0  0  0
    6.9050    3.2420    9.4830 H   0  0  0  0  0  0  0  0  0  0  0  0
    5.5960    2.7820   13.7810 H   0  0  0  0  0  0  0  0  0  0  0  0
    5.0390    1.2150   13.0830 H   0  0  0  0  0  0  0  0  0  0  0  0
    4.0110    2.7100   12.9220 H   0  0  0  0  0  0  0  0  0  0  0  0
    3.5530    1.0910   11.1030 H   0  0  0  0  0  0  0  0  0  0  0  0
    2.9080    0.3720    8.8650 H   0  0  0  0  0  0  0  0  0  0  0  0
    4.7720    3.6350    5.8860 H   0  0  0  0  0  0  0  0  0  0  0  0
    6.0970    4.4450    3.9720 H   0  0  0  0  0  0  0  0  0  0  0  0
    8.5190    4.0330    3.8630 H   0  0  0  0  0  0  0  0  0  0  0  0
    8.3230    1.9480    7.6360 H   0  0  0  0  0  0  0  0  0  0  0  0
   10.5130    3.1910    4.7530 H   0  0  0  0  0  0  0  0  0  0  0  0
    9.8970    0.8840    4.7500 H   0  0  0  0  0  0  0  0  0  0  0  0
   10.5410    2.8520    7.8130 H   0  0  0  0  0  0  0  0  0  0  0  0
   10.6220    4.4200    6.9160 H   0  0  0  0  0  0  0  0  0  0  0  0
   11.9370    3.2020    6.7290 H   0  0  0  0  0  0  0  0  0  0  0  0
    2.1010    1.6140    6.6540 H   0  0  0  0  0  0  0  0  0  0  0  0
    1.4360    0.7760    4.4490 H   0  0  0  0  0  0  0  0  0  0  0  0
   -2.7790   -7.0830    0.1390 C   0  0  0  0  0  0  0  0  0  0  0  0
   -1.8880   -6.0910   -0.2810 O   0  0  0  0  0  0  0  0  0  0  0  0
   -3.5210   -6.6570    0.8490 H   0  0  0  0  0  0  0  0  0  0  0  0
   -2.2130   -7.8870    0.6530 H   0  0  0  0  0  0  0  0  0  0  0  0
   -3.3060   -7.5210   -0.7370 H   0  0  0  0  0  0  0  0  0  0  0  0
   10.9510    0.8720   10.3830 C   0  0  0  0  0  0  0  0  0  0  0  0
   10.0450    0.2650    9.3010 C   0  0  0  0  0  0  0  0  0  0  0  0
   10.2510   -1.2620    9.2780 C   0  0  0  0  0  0  0  0  0  0  0  0
    8.5790    0.6090    9.6300 C   0  0  0  0  0  0  0  0  0  0  0  0
   10.4310    0.8470    8.0470 O   0  0  0  0  0  0  0  0  0  0  0  0
    9.8610    0.5720    6.7960 C   0  0  0  0  0  0  0  0  0  0  0  0
    8.9150   -0.2480    6.6630 O   0  0  0  0  0  0  0  0  0  0  0  0
   10.7040    0.4620   11.3860 H   0  0  0  0  0  0  0  0  0  0  0  0
   12.0170    0.6480   10.1620 H   0  0  0  0  0  0  0  0  0  0  0  0
   10.8300    1.9760   10.4120 H   0  0  0  0  0  0  0  0  0  0  0  0
   11.2910   -1.5030    8.9680 H   0  0  0  0  0  0  0  0  0  0  0  0
    9.5530   -1.7540    8.5700 H   0  0  0  0  0  0  0  0  0  0  0  0
   10.0720   -1.6950   10.2850 H   0  0  0  0  0  0  0  0  0  0  0  0
    8.4210    1.7070    9.5720 H   0  0  0  0  0  0  0  0  0  0  0  0
    7.8800    0.1180    8.9230 H   0  0  0  0  0  0  0  0  0  0  0  0
    8.3180    0.2660   10.6550 H   0  0  0  0  0  0  0  0  0  0  0  0
  1  2  2  0  0  0  0
  1  3  1  0  0  0  0
  1 90  1  0  0  0  0
  3  4  2  0  0  0  0
  3 25  1  0  0  0  0
  4  5  1  0  0  0  0
  4 26  1  0  0  0  0
  5  6  2  0  0  0  0
  5 27  1  0  0  0  0
  6  7  1  0  0  0  0
  6 24  1  0  0  0  0
  7  8  2  0  0  0  0
  7 14  1  0  0  0  0
  8  9  1  0  0  0  0
  8 15  1  0  0  0  0
  9 10  2  0  0  0  0
  9 28  1  0  0  0  0
 10 11  1  0  0  0  0
 10 13  1  0  0  0  0
 11 12  1  0  0  0  0
 12 29  1  0  0  0  0
 12 30  1  0  0  0  0
 12 31  1  0  0  0  0
 13 14  2  0  0  0  0
 13 32  1  0  0  0  0
 14 33  1  0  0  0  0
 15 16  2  0  0  0  0
 15 20  1  0  0  0  0
 16 17  1  0  0  0  0
 16 34  1  0  0  0  0
 17 18  2  0  0  0  0
 17 35  1  0  0  0  0
 18 19  1  0  0  0  0
 18 36  1  0  0  0  0
 19 20  2  0  0  0  0
 19 21  1  0  0  0  0
 20 37  1  0  0  0  0
 21 22  1  0  0  0  0
 21 23  1  0  0  0  0
 21 38  1  6  0  0  0
 22 39  1  0  0  0  0
 22 45  1  0  0  0  0
 23 40  1  0  0  0  0
 23 41  1  0  0  0  0
 23 42  1  0  0  0  0
 24 25  2  0  0  0  0
 24 43  1  0  0  0  0
 25 44  1  0  0  0  0
 45 46  2  0  0  0  0
 45 47  1  0  0  0  0
 47 48  2  0  0  0  0
 47 69  1  0  0  0  0
 48 49  1  0  0  0  0
 48 70  1  0  0  0  0
 49 50  2  0  0  0  0
 49 71  1  0  0  0  0
 50 51  1  0  0  0  0
 50 68  1  0  0  0  0
 51 52  2  0  0  0  0
 51 58  1  0  0  0  0
 52 53  1  0  0  0  0
 52 59  1  0  0  0  0
 53 54  2  0  0  0  0
 53 72  1  0  0  0  0
 54 55  1  0  0  0  0
 54 57  1  0  0  0  0
 55 56  1  0  0  0  0
 56 73  1  0  0  0  0
 56 74  1  0  0  0  0
 56 75  1  0  0  0  0
 57 58  2  0  0  0  0
 57 76  1  0  0  0  0
 58 77  1  0  0  0  0
 59 60  2  0  0  0  0
 59 64  1  0  0  0  0
 60 61  1  0  0  0  0
 60 78  1  0  0  0  0
 61 62  2  0  0  0  0
 61 79  1  0  0  0  0
 62 63  1  0  0  0  0
 62 80  1  0  0  0  0
 63 64  2  0  0  0  0
 63 65  1  0  0  0  0
 64 81  1  0  0  0  0
 65 66  1  0  0  0  0
 65 67  1  0  0  0  0
 65 82  1  6  0  0  0
 66 83  1  0  0  0  0
 66 99  1  0  0  0  0
 67 84  1  0  0  0  0
 67 85  1  0  0  0  0
 67 86  1  0  0  0  0
 68 69  2  0  0  0  0
 68 87  1  0  0  0  0
 69 88  1  0  0  0  0
 89 90  1  0  0  0  0
 89 91  1  0  0  0  0
 89 92  1  0  0  0  0
 89 93  1  0  0  0  0
 94 95  1  0  0  0  0
 94101  1  0  0  0  0
 94102  1  0  0  0  0
 94103  1  0  0  0  0
 95 96  1  0  0  0  0
 95 97  1  0  0  0  0
 95 98  1  0  0  0  0
 96104  1  0  0  0  0
 96105  1  0  0  0  0
 96106  1  0  0  0  0
 97107  1  0  0  0  0
 97108  1  0  0  0  0
 97109  1  0  0  0  0
 98 99  1  0  0  0  0
 99100  2  0  0  0  0
M  END
$$$$
