mop_tetramer_mbuild.pdb
 OpenBabel04062318113D

197208  0  0  1  0  0  0  0  0999 V2000
   -3.0020   -4.9110    0.1170 C   0  0  0  0  0  0  0  0  0  0  0  0
   -3.8790   -5.4070   -0.6390 O   0  0  0  0  0  0  0  0  0  0  0  0
   -2.7170   -3.4650    0.1060 C   0  0  0  0  0  0  0  0  0  0  0  0
   -1.7350   -2.9450    0.9610 C   0  0  0  0  0  0  0  0  0  0  0  0
   -1.4500   -1.5770    0.9630 C   0  0  0  0  0  0  0  0  0  0  0  0
   -2.1380   -0.7070    0.1010 C   0  0  0  0  0  0  0  0  0  0  0  0
   -1.8310    0.7440    0.0930 C   0  0  0  0  0  0  0  0  0  0  0  0
   -0.5130    1.2340   -0.0910 C   0  0  0  0  0  0  0  0  0  0  0  0
   -0.2750    2.6170   -0.0110 C   0  0  0  0  0  0  0  0  0  0  0  0
   -1.3190    3.5170    0.2220 C   0  0  0  0  0  0  0  0  0  0  0  0
   -1.0170    4.8850    0.2850 O   0  0  0  0  0  0  0  0  0  0  0  0
   -1.9770    5.9120    0.5140 C   0  0  0  0  0  0  0  0  0  0  0  0
   -2.6260    3.0260    0.3800 C   0  0  0  0  0  0  0  0  0  0  0  0
   -2.8760    1.6550    0.3150 C   0  0  0  0  0  0  0  0  0  0  0  0
    0.6230    0.3350   -0.4080 C   0  0  0  0  0  0  0  0  0  0  0  0
    0.5580   -0.5310   -1.5100 C   0  0  0  0  0  0  0  0  0  0  0  0
    1.6240   -1.3850   -1.7980 C   0  0  0  0  0  0  0  0  0  0  0  0
    2.7670   -1.3770   -0.9950 C   0  0  0  0  0  0  0  0  0  0  0  0
    2.8580   -0.5060    0.1070 C   0  0  0  0  0  0  0  0  0  0  0  0
    1.7790    0.3500    0.3900 C   0  0  0  0  0  0  0  0  0  0  0  0
    4.0920   -0.4900    0.9940 C   0  0  1  0  0  0  0  0  0  0  0  0
    4.2780   -1.7760    1.6700 N   0  0  0  0  0  0  0  0  0  0  0  0
    5.3490   -0.1180    0.2010 C   0  0  0  0  0  0  0  0  0  0  0  0
   -3.1300   -1.2250   -0.7460 C   0  0  0  0  0  0  0  0  0  0  0  0
   -3.4160   -2.5930   -0.7470 C   0  0  0  0  0  0  0  0  0  0  0  0
   -1.1880   -3.5990    1.6310 H   0  0  0  0  0  0  0  0  0  0  0  0
   -0.6950   -1.1960    1.6390 H   0  0  0  0  0  0  0  0  0  0  0  0
    0.7280    3.0030   -0.1530 H   0  0  0  0  0  0  0  0  0  0  0  0
   -1.4630    6.8950    0.5150 H   0  0  0  0  0  0  0  0  0  0  0  0
   -2.4650    5.7650    1.5010 H   0  0  0  0  0  0  0  0  0  0  0  0
   -2.7390    5.9090   -0.2940 H   0  0  0  0  0  0  0  0  0  0  0  0
   -3.4560    3.6960    0.5610 H   0  0  0  0  0  0  0  0  0  0  0  0
   -3.8890    1.3000    0.4620 H   0  0  0  0  0  0  0  0  0  0  0  0
   -0.3170   -0.5450   -2.1480 H   0  0  0  0  0  0  0  0  0  0  0  0
    1.5650   -2.0540   -2.6460 H   0  0  0  0  0  0  0  0  0  0  0  0
    3.5790   -2.0500   -1.2370 H   0  0  0  0  0  0  0  0  0  0  0  0
    1.8280    1.0170    1.2420 H   0  0  0  0  0  0  0  0  0  0  0  0
    3.9720    0.2890    1.7810 H   0  0  0  0  0  0  0  0  0  0  0  0
    4.3950   -2.5370    0.9630 H   0  0  0  0  0  0  0  0  0  0  0  0
    5.5830   -0.8880   -0.5630 H   0  0  0  0  0  0  0  0  0  0  0  0
    6.2160   -0.0330    0.8900 H   0  0  0  0  0  0  0  0  0  0  0  0
    5.2050    0.8610   -0.3040 H   0  0  0  0  0  0  0  0  0  0  0  0
   -3.6720   -0.5700   -1.4180 H   0  0  0  0  0  0  0  0  0  0  0  0
   -4.1800   -2.9680   -1.4160 H   0  0  0  0  0  0  0  0  0  0  0  0
    3.0430   -2.0840    2.4630 C   0  0  0  0  0  0  0  0  0  0  0  0
    2.0280   -2.5250    1.8620 O   0  0  0  0  0  0  0  0  0  0  0  0
    3.0310   -1.8690    3.9220 C   0  0  0  0  0  0  0  0  0  0  0  0
    4.1790   -1.3770    4.5590 C   0  0  0  0  0  0  0  0  0  0  0  0
    4.1850   -1.1660    5.9410 C   0  0  0  0  0  0  0  0  0  0  0  0
    3.0380   -1.4340    6.7050 C   0  0  0  0  0  0  0  0  0  0  0  0
    3.0380   -1.2010    8.1700 C   0  0  0  0  0  0  0  0  0  0  0  0
    3.4020    0.0490    8.7340 C   0  0  0  0  0  0  0  0  0  0  0  0
    3.4570    0.1830   10.1320 C   0  0  0  0  0  0  0  0  0  0  0  0
    3.1350   -0.8860   10.9740 C   0  0  0  0  0  0  0  0  0  0  0  0
    3.2030   -0.6850   12.3600 O   0  0  0  0  0  0  0  0  0  0  0  0
    2.9030   -1.6800   13.3330 C   0  0  0  0  0  0  0  0  0  0  0  0
    2.7520   -2.1130   10.4080 C   0  0  0  0  0  0  0  0  0  0  0  0
    2.7050   -2.2660    9.0220 C   0  0  0  0  0  0  0  0  0  0  0  0
    3.6890    1.2360    7.8940 C   0  0  0  0  0  0  0  0  0  0  0  0
    2.7480    1.6880    6.9560 C   0  0  0  0  0  0  0  0  0  0  0  0
    3.0270    2.7990    6.1590 C   0  0  0  0  0  0  0  0  0  0  0  0
    4.2410    3.4740    6.2950 C   0  0  0  0  0  0  0  0  0  0  0  0
    5.1930    3.0460    7.2390 C   0  0  0  0  0  0  0  0  0  0  0  0
    4.9050    1.9250    8.0370 C   0  0  0  0  0  0  0  0  0  0  0  0
    6.5230    3.7660    7.3940 C   0  0  1  0  0  0  0  0  0  0  0  0
    7.3220    3.6780    6.1700 N   0  0  0  0  0  0  0  0  0  0  0  0
    6.3250    5.2300    7.7970 C   0  0  0  0  0  0  0  0  0  0  0  0
    1.8930   -1.9380    6.0700 C   0  0  0  0  0  0  0  0  0  0  0  0
    1.8870   -2.1510    4.6880 C   0  0  0  0  0  0  0  0  0  0  0  0
    5.0730   -1.1580    3.9880 H   0  0  0  0  0  0  0  0  0  0  0  0
    5.0860   -0.7950    6.4140 H   0  0  0  0  0  0  0  0  0  0  0  0
    3.7310    1.1340   10.5740 H   0  0  0  0  0  0  0  0  0  0  0  0
    3.0410   -1.2510   14.3460 H   0  0  0  0  0  0  0  0  0  0  0  0
    3.5890   -2.5460   13.2180 H   0  0  0  0  0  0  0  0  0  0  0  0
    1.8480   -2.0110   13.2280 H   0  0  0  0  0  0  0  0  0  0  0  0
    2.4960   -2.9590   11.0320 H   0  0  0  0  0  0  0  0  0  0  0  0
    2.4280   -3.2300    8.6110 H   0  0  0  0  0  0  0  0  0  0  0  0
    1.7970    1.1810    6.8440 H   0  0  0  0  0  0  0  0  0  0  0  0
    2.2980    3.1390    5.4340 H   0  0  0  0  0  0  0  0  0  0  0  0
    4.4350    4.3310    5.6630 H   0  0  0  0  0  0  0  0  0  0  0  0
    5.6320    1.5750    8.7600 H   0  0  0  0  0  0  0  0  0  0  0  0
    7.1090    3.2890    8.2120 H   0  0  0  0  0  0  0  0  0  0  0  0
    6.8040    4.1170    5.3740 H   0  0  0  0  0  0  0  0  0  0  0  0
    5.8070    5.8000    6.9960 H   0  0  0  0  0  0  0  0  0  0  0  0
    7.3120    5.7050    7.9830 H   0  0  0  0  0  0  0  0  0  0  0  0
    5.7240    5.2920    8.7300 H   0  0  0  0  0  0  0  0  0  0  0  0
    0.9990   -2.1520    6.6420 H   0  0  0  0  0  0  0  0  0  0  0  0
    0.9880   -2.5330    4.2200 H   0  0  0  0  0  0  0  0  0  0  0  0
    7.5240    2.2310    5.8320 C   0  0  0  0  0  0  0  0  0  0  0  0
    6.5830    1.5960    5.2860 O   0  0  0  0  0  0  0  0  0  0  0  0
    8.8080    1.5750    6.1390 C   0  0  0  0  0  0  0  0  0  0  0  0
    9.8350    2.3120    6.7460 C   0  0  0  0  0  0  0  0  0  0  0  0
   11.0580    1.7060    7.0460 C   0  0  0  0  0  0  0  0  0  0  0  0
   11.2700    0.3490    6.7520 C   0  0  0  0  0  0  0  0  0  0  0  0
   12.5630   -0.3000    7.0780 C   0  0  0  0  0  0  0  0  0  0  0  0
   13.1180   -0.2600    8.3830 C   0  0  0  0  0  0  0  0  0  0  0  0
   14.3830   -0.8270    8.6100 C   0  0  0  0  0  0  0  0  0  0  0  0
   15.0910   -1.4510    7.5790 C   0  0  0  0  0  0  0  0  0  0  0  0
   16.3470   -2.0020    7.8730 O   0  0  0  0  0  0  0  0  0  0  0  0
   17.1760   -2.6660    6.9240 C   0  0  0  0  0  0  0  0  0  0  0  0
   14.5250   -1.5080    6.2950 C   0  0  0  0  0  0  0  0  0  0  0  0
   13.2750   -0.9390    6.0500 C   0  0  0  0  0  0  0  0  0  0  0  0
   12.3860    0.3280    9.5300 C   0  0  0  0  0  0  0  0  0  0  0  0
   11.0970   -0.1210    9.8570 C   0  0  0  0  0  0  0  0  0  0  0  0
   10.4060    0.4430   10.9300 C   0  0  0  0  0  0  0  0  0  0  0  0
   10.9960    1.4540   11.6920 C   0  0  0  0  0  0  0  0  0  0  0  0
   12.2930    1.9090   11.3910 C   0  0  0  0  0  0  0  0  0  0  0  0
   12.9820    1.3360   10.3060 C   0  0  0  0  0  0  0  0  0  0  0  0
   12.9470    3.0130   12.2050 C   0  0  1  0  0  0  0  0  0  0  0  0
   12.2030    4.2700   12.0930 N   0  0  0  0  0  0  0  0  0  0  0  0
   13.0940    2.6120   13.6760 C   0  0  0  0  0  0  0  0  0  0  0  0
   10.2460   -0.3860    6.1330 C   0  0  0  0  0  0  0  0  0  0  0  0
    9.0230    0.2200    5.8310 C   0  0  0  0  0  0  0  0  0  0  0  0
    9.6920    3.3580    6.9870 H   0  0  0  0  0  0  0  0  0  0  0  0
   11.8410    2.2960    7.5050 H   0  0  0  0  0  0  0  0  0  0  0  0
   14.8160   -0.8040    9.6040 H   0  0  0  0  0  0  0  0  0  0  0  0
   18.1070   -3.0000    7.4260 H   0  0  0  0  0  0  0  0  0  0  0  0
   17.4450   -1.9720    6.1000 H   0  0  0  0  0  0  0  0  0  0  0  0
   16.6530   -3.5570    6.5170 H   0  0  0  0  0  0  0  0  0  0  0  0
   15.0470   -1.9840    5.4750 H   0  0  0  0  0  0  0  0  0  0  0  0
   12.8700   -0.9770    5.0460 H   0  0  0  0  0  0  0  0  0  0  0  0
   10.6280   -0.9100    9.2820 H   0  0  0  0  0  0  0  0  0  0  0  0
    9.4100    0.0960   11.1730 H   0  0  0  0  0  0  0  0  0  0  0  0
   10.4390    1.8770   12.5180 H   0  0  0  0  0  0  0  0  0  0  0  0
   13.9760    1.6840   10.0520 H   0  0  0  0  0  0  0  0  0  0  0  0
   13.9760    3.1970   11.8230 H   0  0  0  0  0  0  0  0  0  0  0  0
   11.2260    4.1390   12.4430 H   0  0  0  0  0  0  0  0  0  0  0  0
   12.1030    2.4800   14.1570 H   0  0  0  0  0  0  0  0  0  0  0  0
   13.6480    3.4020   14.2260 H   0  0  0  0  0  0  0  0  0  0  0  0
   13.6650    1.6620   13.7570 H   0  0  0  0  0  0  0  0  0  0  0  0
   10.3900   -1.4330    5.8970 H   0  0  0  0  0  0  0  0  0  0  0  0
    8.2470   -0.3700    5.3610 H   0  0  0  0  0  0  0  0  0  0  0  0
   12.1130    4.6450   10.6430 C   0  0  0  0  0  0  0  0  0  0  0  0
   11.2710    4.0590    9.9130 O   0  0  0  0  0  0  0  0  0  0  0  0
   13.0030    5.6850   10.0950 C   0  0  0  0  0  0  0  0  0  0  0  0
   13.9290    6.3190   10.9370 C   0  0  0  0  0  0  0  0  0  0  0  0
   14.7810    7.3060   10.4340 C   0  0  0  0  0  0  0  0  0  0  0  0
   14.7270    7.6680    9.0780 C   0  0  0  0  0  0  0  0  0  0  0  0
   15.6370    8.7080    8.5390 C   0  0  0  0  0  0  0  0  0  0  0  0
   17.0450    8.6340    8.7000 C   0  0  0  0  0  0  0  0  0  0  0  0
   17.8470    9.6900    8.2340 C   0  0  0  0  0  0  0  0  0  0  0  0
   17.2840   10.7970    7.5940 C   0  0  0  0  0  0  0  0  0  0  0  0
   18.1400   11.8150    7.1470 O   0  0  0  0  0  0  0  0  0  0  0  0
   17.7060   12.9960    6.4800 C   0  0  0  0  0  0  0  0  0  0  0  0
   15.8910   10.8520    7.4160 C   0  0  0  0  0  0  0  0  0  0  0  0
   15.0800    9.8180    7.8840 C   0  0  0  0  0  0  0  0  0  0  0  0
   17.7050    7.4550    9.3100 C   0  0  0  0  0  0  0  0  0  0  0  0
   17.4780    6.1680    8.7980 C   0  0  0  0  0  0  0  0  0  0  0  0
   18.0920    5.0600    9.3830 C   0  0  0  0  0  0  0  0  0  0  0  0
   18.9430    5.2250   10.4780 C   0  0  0  0  0  0  0  0  0  0  0  0
   19.1950    6.5080   10.9980 C   0  0  0  0  0  0  0  0  0  0  0  0
   18.5710    7.6190   10.4040 C   0  0  0  0  0  0  0  0  0  0  0  0
   20.1130    6.7030   12.1930 C   0  0  1  0  0  0  0  0  0  0  0  0
   19.5800    6.0440   13.3880 N   0  0  0  0  0  0  0  0  0  0  0  0
   21.5320    6.2050   11.8990 C   0  0  0  0  0  0  0  0  0  0  0  0
   13.7920    7.0430    8.2380 C   0  0  0  0  0  0  0  0  0  0  0  0
   12.9380    6.0570    8.7410 C   0  0  0  0  0  0  0  0  0  0  0  0
   13.9910    6.0520   11.9840 H   0  0  0  0  0  0  0  0  0  0  0  0
   15.4810    7.7900   11.1030 H   0  0  0  0  0  0  0  0  0  0  0  0
   18.9240    9.6430    8.3500 H   0  0  0  0  0  0  0  0  0  0  0  0
   18.5900   13.6230    6.2420 H   0  0  0  0  0  0  0  0  0  0  0  0
   17.0240   13.5760    7.1360 H   0  0  0  0  0  0  0  0  0  0  0  0
   17.1920   12.7320    5.5320 H   0  0  0  0  0  0  0  0  0  0  0  0
   15.4240   11.6950    6.9240 H   0  0  0  0  0  0  0  0  0  0  0  0
   14.0070    9.8950    7.7550 H   0  0  0  0  0  0  0  0  0  0  0  0
   16.8270    6.0240    7.9450 H   0  0  0  0  0  0  0  0  0  0  0  0
   17.9080    4.0700    8.9860 H   0  0  0  0  0  0  0  0  0  0  0  0
   19.4050    4.3490   10.9150 H   0  0  0  0  0  0  0  0  0  0  0  0
   18.7450    8.6120   10.8000 H   0  0  0  0  0  0  0  0  0  0  0  0
   20.2010    7.7890   12.4200 H   0  0  0  0  0  0  0  0  0  0  0  0
   19.4830    5.0170   13.2150 H   0  0  0  0  0  0  0  0  0  0  0  0
   21.5440    5.1070   11.7320 H   0  0  0  0  0  0  0  0  0  0  0  0
   22.1970    6.4360   12.7580 H   0  0  0  0  0  0  0  0  0  0  0  0
   21.9350    6.7120   10.9960 H   0  0  0  0  0  0  0  0  0  0  0  0
   13.7340    7.3090    7.1900 H   0  0  0  0  0  0  0  0  0  0  0  0
   12.2310    5.5840    8.0710 H   0  0  0  0  0  0  0  0  0  0  0  0
   -3.0150   -6.9770    1.1620 C   0  0  0  0  0  0  0  0  0  0  0  0
   -2.2420   -5.8180    1.0390 O   0  0  0  0  0  0  0  0  0  0  0  0
   -4.0090   -6.7310    1.5950 H   0  0  0  0  0  0  0  0  0  0  0  0
   -2.4970   -7.6890    1.8380 H   0  0  0  0  0  0  0  0  0  0  0  0
   -3.1460   -7.4580    0.1690 H   0  0  0  0  0  0  0  0  0  0  0  0
   17.0930   10.1640   13.9790 C   0  0  0  0  0  0  0  0  0  0  0  0
   16.7920    8.6570   13.9910 C   0  0  0  0  0  0  0  0  0  0  0  0
   16.2340    8.2730   15.3740 C   0  0  0  0  0  0  0  0  0  0  0  0
   15.7650    8.3460   12.8860 C   0  0  0  0  0  0  0  0  0  0  0  0
   18.0300    7.9750   13.7370 O   0  0  0  0  0  0  0  0  0  0  0  0
   18.2090    6.5860   13.6620 C   0  0  0  0  0  0  0  0  0  0  0  0
   17.2520    5.7830   13.8190 O   0  0  0  0  0  0  0  0  0  0  0  0
   16.1720   10.7560   14.1700 H   0  0  0  0  0  0  0  0  0  0  0  0
   17.8420   10.4140   14.7600 H   0  0  0  0  0  0  0  0  0  0  0  0
   17.5090   10.4660   12.9930 H   0  0  0  0  0  0  0  0  0  0  0  0
   17.0060    8.4310   16.1570 H   0  0  0  0  0  0  0  0  0  0  0  0
   15.9200    7.2090   15.4030 H   0  0  0  0  0  0  0  0  0  0  0  0
   15.3450    8.8930   15.6230 H   0  0  0  0  0  0  0  0  0  0  0  0
   16.2010    8.5570   11.8860 H   0  0  0  0  0  0  0  0  0  0  0  0
   15.4510    7.2830   12.9120 H   0  0  0  0  0  0  0  0  0  0  0  0
   14.8530    8.9700   13.0130 H   0  0  0  0  0  0  0  0  0  0  0  0
  1178  1  0  0  0  0
  2  1  2  0  0  0  0
  3  1  1  0  0  0  0
  3  4  1  0  0  0  0
  4  5  2  0  0  0  0
  4 26  1  0  0  0  0
  5 27  1  0  0  0  0
  6  5  1  0  0  0  0
  7  6  1  0  0  0  0
  7 14  1  0  0  0  0
  8  9  1  0  0  0  0
  8  7  2  0  0  0  0
  9 10  2  0  0  0  0
 10 11  1  0  0  0  0
 10 13  1  0  0  0  0
 11 12  1  0  0  0  0
 12 29  1  0  0  0  0
 12 30  1  0  0  0  0
 13 32  1  0  0  0  0
 14 13  2  0  0  0  0
 14 33  1  0  0  0  0
 15  8  1  0  0  0  0
 15 20  1  0  0  0  0
 16 15  2  0  0  0  0
 17 16  1  0  0  0  0
 17 18  2  0  0  0  0
 18 19  1  0  0  0  0
 19 20  2  0  0  0  0
 19 21  1  0  0  0  0
 20 37  1  0  0  0  0
 21 22  1  0  0  0  0
 21 38  1  1  0  0  0
 22 45  1  0  0  0  0
 23 41  1  0  0  0  0
 23 21  1  0  0  0  0
 24  6  2  0  0  0  0
 25 24  1  0  0  0  0
 25  3  2  0  0  0  0
 28  9  1  0  0  0  0
 31 12  1  0  0  0  0
 34 16  1  0  0  0  0
 35 17  1  0  0  0  0
 36 18  1  0  0  0  0
 39 22  1  0  0  0  0
 40 23  1  0  0  0  0
 42 23  1  0  0  0  0
 43 24  1  0  0  0  0
 44 25  1  0  0  0  0
 45 47  1  0  0  0  0
 46 45  2  0  0  0  0
 47 48  2  0  0  0  0
 47 69  1  0  0  0  0
 48 49  1  0  0  0  0
 49 71  1  0  0  0  0
 49 50  2  0  0  0  0
 50 51  1  0  0  0  0
 51 52  2  0  0  0  0
 51 58  1  0  0  0  0
 52 53  1  0  0  0  0
 53 72  1  0  0  0  0
 53 54  2  0  0  0  0
 54 55  1  0  0  0  0
 55 56  1  0  0  0  0
 56 73  1  0  0  0  0
 57 54  1  0  0  0  0
 57 76  1  0  0  0  0
 58 57  2  0  0  0  0
 59 64  1  0  0  0  0
 59 52  1  0  0  0  0
 60 59  2  0  0  0  0
 61 62  2  0  0  0  0
 61 60  1  0  0  0  0
 62 63  1  0  0  0  0
 63 65  1  0  0  0  0
 63 64  2  0  0  0  0
 64 81  1  0  0  0  0
 65 67  1  0  0  0  0
 65 82  1  1  0  0  0
 66 65  1  0  0  0  0
 67 85  1  0  0  0  0
 67 86  1  0  0  0  0
 68 87  1  0  0  0  0
 68 50  1  0  0  0  0
 69 68  2  0  0  0  0
 70 48  1  0  0  0  0
 74 56  1  0  0  0  0
 75 56  1  0  0  0  0
 77 58  1  0  0  0  0
 78 60  1  0  0  0  0
 79 61  1  0  0  0  0
 80 62  1  0  0  0  0
 83 66  1  0  0  0  0
 84 67  1  0  0  0  0
 88 69  1  0  0  0  0
 89 91  1  0  0  0  0
 89 66  1  0  0  0  0
 90 89  2  0  0  0  0
 91 92  1  0  0  0  0
 92114  1  0  0  0  0
 92 93  2  0  0  0  0
 93115  1  0  0  0  0
 94 93  1  0  0  0  0
 94 95  1  0  0  0  0
 95 96  1  0  0  0  0
 96 97  2  0  0  0  0
 96103  1  0  0  0  0
 97116  1  0  0  0  0
 98 99  1  0  0  0  0
 98 97  1  0  0  0  0
100117  1  0  0  0  0
100 99  1  0  0  0  0
101 98  2  0  0  0  0
102101  1  0  0  0  0
102 95  2  0  0  0  0
103104  2  0  0  0  0
103108  1  0  0  0  0
104105  1  0  0  0  0
105123  1  0  0  0  0
105106  2  0  0  0  0
106124  1  0  0  0  0
107106  1  0  0  0  0
107109  1  0  0  0  0
108107  2  0  0  0  0
109126  1  6  0  0  0
109111  1  0  0  0  0
110109  1  0  0  0  0
110127  1  0  0  0  0
111130  1  0  0  0  0
111128  1  0  0  0  0
111129  1  0  0  0  0
112 94  2  0  0  0  0
113112  1  0  0  0  0
113 91  2  0  0  0  0
118100  1  0  0  0  0
119100  1  0  0  0  0
120101  1  0  0  0  0
121102  1  0  0  0  0
122104  1  0  0  0  0
125108  1  0  0  0  0
131112  1  0  0  0  0
132113  1  0  0  0  0
133110  1  0  0  0  0
134133  2  0  0  0  0
135133  1  0  0  0  0
135136  1  0  0  0  0
136158  1  0  0  0  0
137136  2  0  0  0  0
137159  1  0  0  0  0
138137  1  0  0  0  0
139140  1  0  0  0  0
139138  1  0  0  0  0
140147  1  0  0  0  0
141160  1  0  0  0  0
141140  2  0  0  0  0
142141  1  0  0  0  0
143142  1  0  0  0  0
144162  1  0  0  0  0
144143  1  0  0  0  0
145142  2  0  0  0  0
145146  1  0  0  0  0
146139  2  0  0  0  0
147152  1  0  0  0  0
148147  2  0  0  0  0
148149  1  0  0  0  0
149150  2  0  0  0  0
150168  1  0  0  0  0
150151  1  0  0  0  0
151153  1  0  0  0  0
152169  1  0  0  0  0
152151  2  0  0  0  0
153170  1  1  0  0  0
153154  1  0  0  0  0
154187  1  0  0  0  0
155153  1  0  0  0  0
155173  1  0  0  0  0
156157  1  0  0  0  0
156138  2  0  0  0  0
157135  2  0  0  0  0
161144  1  0  0  0  0
163144  1  0  0  0  0
164145  1  0  0  0  0
165146  1  0  0  0  0
166148  1  0  0  0  0
167149  1  0  0  0  0
171154  1  0  0  0  0
172155  1  0  0  0  0
174155  1  0  0  0  0
175156  1  0  0  0  0
176157  1  0  0  0  0
177179  1  0  0  0  0
177180  1  0  0  0  0
178177  1  0  0  0  0
181177  1  0  0  0  0
182183  1  0  0  0  0
182189  1  0  0  0  0
182190  1  0  0  0  0
183184  1  0  0  0  0
184193  1  0  0  0  0
184194  1  0  0  0  0
184192  1  0  0  0  0
185196  1  0  0  0  0
185197  1  0  0  0  0
185183  1  0  0  0  0
186183  1  0  0  0  0
187186  1  0  0  0  0
187188  2  0  0  0  0
191182  1  0  0  0  0
195185  1  0  0  0  0
M  END
$$$$
