mop_tetramer_mbuild.pdb
 OpenBabel08092309313D

197208  0  0  1  0  0  0  0  0999 V2000
   -2.7230   -5.0480   -0.9630 C   0  0  0  0  0  0  0  0  0  0  0  0
   -3.6120   -5.4150   -1.7770 O   0  0  0  0  0  0  0  0  0  0  0  0
   -2.4960   -3.6190   -0.6770 C   0  0  0  0  0  0  0  0  0  0  0  0
   -1.4980   -3.2450    0.2350 C   0  0  0  0  0  0  0  0  0  0  0  0
   -1.2680   -1.8960    0.5170 C   0  0  0  0  0  0  0  0  0  0  0  0
   -2.0260   -0.8980   -0.1160 C   0  0  0  0  0  0  0  0  0  0  0  0
   -1.7780    0.5350    0.1730 C   0  0  0  0  0  0  0  0  0  0  0  0
   -0.4900    1.1150    0.0520 C   0  0  0  0  0  0  0  0  0  0  0  0
   -0.3030    2.4600    0.4170 C   0  0  0  0  0  0  0  0  0  0  0  0
   -1.3700    3.2390    0.8720 C   0  0  0  0  0  0  0  0  0  0  0  0
   -1.1190    4.5770    1.2140 O   0  0  0  0  0  0  0  0  0  0  0  0
   -2.1080    5.4840    1.6900 C   0  0  0  0  0  0  0  0  0  0  0  0
   -2.6490    2.6650    0.9660 C   0  0  0  0  0  0  0  0  0  0  0  0
   -2.8470    1.3280    0.6200 C   0  0  0  0  0  0  0  0  0  0  0  0
    0.6660    0.3590   -0.4870 C   0  0  0  0  0  0  0  0  0  0  0  0
    0.5890   -0.2560   -1.7460 C   0  0  0  0  0  0  0  0  0  0  0  0
    1.6740   -0.9770   -2.2450 C   0  0  0  0  0  0  0  0  0  0  0  0
    2.8490   -1.0860   -1.4970 C   0  0  0  0  0  0  0  0  0  0  0  0
    2.9520   -0.4670   -0.2390 C   0  0  0  0  0  0  0  0  0  0  0  0
    1.8520    0.2570    0.2580 C   0  0  0  0  0  0  0  0  0  0  0  0
    4.2330   -0.6010    0.5680 C   0  0  2  0  0  0  0  0  0  0  0  0
    4.0000   -1.3250    1.8200 N   0  0  0  0  0  0  0  0  0  0  0  0
    4.8610    0.7670    0.8540 C   0  0  0  0  0  0  0  0  0  0  0  0
   -3.0340   -1.2730   -1.0200 C   0  0  0  0  0  0  0  0  0  0  0  0
   -3.2650   -2.6220   -1.3010 C   0  0  0  0  0  0  0  0  0  0  0  0
   -0.8980   -3.9980    0.7310 H   0  0  0  0  0  0  0  0  0  0  0  0
   -0.5000   -1.6300    1.2330 H   0  0  0  0  0  0  0  0  0  0  0  0
    0.6770    2.9140    0.3270 H   0  0  0  0  0  0  0  0  0  0  0  0
   -1.6340    6.4680    1.8820 H   0  0  0  0  0  0  0  0  0  0  0  0
   -2.5460    5.1090    2.6390 H   0  0  0  0  0  0  0  0  0  0  0  0
   -2.9030    5.6160    0.9260 H   0  0  0  0  0  0  0  0  0  0  0  0
   -3.4950    3.2410    1.3130 H   0  0  0  0  0  0  0  0  0  0  0  0
   -3.8380    0.9020    0.7220 H   0  0  0  0  0  0  0  0  0  0  0  0
   -0.3120   -0.1750   -2.3430 H   0  0  0  0  0  0  0  0  0  0  0  0
    1.6060   -1.4530   -3.2150 H   0  0  0  0  0  0  0  0  0  0  0  0
    3.6770   -1.6530   -1.9020 H   0  0  0  0  0  0  0  0  0  0  0  0
    1.9080    0.7300    1.2300 H   0  0  0  0  0  0  0  0  0  0  0  0
    4.9820   -1.1770   -0.0190 H   0  0  0  0  0  0  0  0  0  0  0  0
    3.5960   -2.2630    1.5930 H   0  0  0  0  0  0  0  0  0  0  0  0
    4.2040    1.3830    1.5030 H   0  0  0  0  0  0  0  0  0  0  0  0
    5.0410    1.3110   -0.0980 H   0  0  0  0  0  0  0  0  0  0  0  0
    5.8360    0.6320    1.3700 H   0  0  0  0  0  0  0  0  0  0  0  0
   -3.6300   -0.5180   -1.5180 H   0  0  0  0  0  0  0  0  0  0  0  0
   -4.0420   -2.8840   -2.0080 H   0  0  0  0  0  0  0  0  0  0  0  0
    2.9940   -0.5920    2.6560 C   0  0  0  0  0  0  0  0  0  0  0  0
    1.8320   -0.4200    2.2000 O   0  0  0  0  0  0  0  0  0  0  0  0
    3.3720   -0.0860    3.9890 C   0  0  0  0  0  0  0  0  0  0  0  0
    4.6740   -0.2960    4.4660 C   0  0  0  0  0  0  0  0  0  0  0  0
    5.0500    0.1780    5.7260 C   0  0  0  0  0  0  0  0  0  0  0  0
    4.1320    0.8780    6.5250 C   0  0  0  0  0  0  0  0  0  0  0  0
    4.5300    1.3910    7.8580 C   0  0  0  0  0  0  0  0  0  0  0  0
    5.6680    2.2190    8.0370 C   0  0  0  0  0  0  0  0  0  0  0  0
    6.0390    2.6080    9.3350 C   0  0  0  0  0  0  0  0  0  0  0  0
    5.2920    2.2130   10.4490 C   0  0  0  0  0  0  0  0  0  0  0  0
    5.7120    2.6400   11.7180 O   0  0  0  0  0  0  0  0  0  0  0  0
    5.0490    2.3160   12.9360 C   0  0  0  0  0  0  0  0  0  0  0  0
    4.1530    1.4130   10.2630 C   0  0  0  0  0  0  0  0  0  0  0  0
    3.7780    1.0080    8.9810 C   0  0  0  0  0  0  0  0  0  0  0  0
    6.4600    2.7240    6.8900 C   0  0  0  0  0  0  0  0  0  0  0  0
    5.8370    3.4370    5.8540 C   0  0  0  0  0  0  0  0  0  0  0  0
    6.5840    3.9010    4.7710 C   0  0  0  0  0  0  0  0  0  0  0  0
    7.9600    3.6660    4.7140 C   0  0  0  0  0  0  0  0  0  0  0  0
    8.6060    2.9660    5.7470 C   0  0  0  0  0  0  0  0  0  0  0  0
    7.8450    2.4990    6.8360 C   0  0  0  0  0  0  0  0  0  0  0  0
   10.1020    2.7100    5.6690 C   0  0  2  0  0  0  0  0  0  0  0  0
   10.3930    1.2770    5.5830 N   0  0  0  0  0  0  0  0  0  0  0  0
   10.8410    3.3320    6.8580 C   0  0  0  0  0  0  0  0  0  0  0  0
    2.8250    1.0770    6.0530 C   0  0  0  0  0  0  0  0  0  0  0  0
    2.4480    0.6020    4.7930 C   0  0  0  0  0  0  0  0  0  0  0  0
    5.4000   -0.8290    3.8650 H   0  0  0  0  0  0  0  0  0  0  0  0
    6.0570   -0.0050    6.0790 H   0  0  0  0  0  0  0  0  0  0  0  0
    6.9050    3.2420    9.4830 H   0  0  0  0  0  0  0  0  0  0  0  0
    5.5960    2.7820   13.7810 H   0  0  0  0  0  0  0  0  0  0  0  0
    5.0390    1.2150   13.0830 H   0  0  0  0  0  0  0  0  0  0  0  0
    4.0110    2.7100   12.9220 H   0  0  0  0  0  0  0  0  0  0  0  0
    3.5530    1.0910   11.1030 H   0  0  0  0  0  0  0  0  0  0  0  0
    2.9080    0.3720    8.8650 H   0  0  0  0  0  0  0  0  0  0  0  0
    4.7720    3.6350    5.8860 H   0  0  0  0  0  0  0  0  0  0  0  0
    6.0970    4.4450    3.9720 H   0  0  0  0  0  0  0  0  0  0  0  0
    8.5190    4.0330    3.8630 H   0  0  0  0  0  0  0  0  0  0  0  0
    8.3230    1.9480    7.6360 H   0  0  0  0  0  0  0  0  0  0  0  0
   10.5130    3.1910    4.7530 H   0  0  0  0  0  0  0  0  0  0  0  0
    9.8970    0.8840    4.7500 H   0  0  0  0  0  0  0  0  0  0  0  0
   10.5410    2.8520    7.8130 H   0  0  0  0  0  0  0  0  0  0  0  0
   10.6220    4.4200    6.9160 H   0  0  0  0  0  0  0  0  0  0  0  0
   11.9370    3.2020    6.7290 H   0  0  0  0  0  0  0  0  0  0  0  0
    2.1010    1.6140    6.6540 H   0  0  0  0  0  0  0  0  0  0  0  0
    1.4360    0.7760    4.4490 H   0  0  0  0  0  0  0  0  0  0  0  0
    9.8610    0.5720    6.7960 C   0  0  0  0  0  0  0  0  0  0  0  0
    8.6220    0.6040    7.0230 O   0  0  0  0  0  0  0  0  0  0  0  0
   10.7830   -0.1410    7.6980 C   0  0  0  0  0  0  0  0  0  0  0  0
   12.1560   -0.1570    7.4140 C   0  0  0  0  0  0  0  0  0  0  0  0
   13.0450   -0.8270    8.2580 C   0  0  0  0  0  0  0  0  0  0  0  0
   12.5750   -1.4840    9.4070 C   0  0  0  0  0  0  0  0  0  0  0  0
   13.5170   -2.1880   10.3110 C   0  0  0  0  0  0  0  0  0  0  0  0
   14.6530   -1.5430   10.8650 C   0  0  0  0  0  0  0  0  0  0  0  0
   15.5510   -2.2850   11.6510 C   0  0  0  0  0  0  0  0  0  0  0  0
   15.3290   -3.6400   11.9170 C   0  0  0  0  0  0  0  0  0  0  0  0
   16.2600   -4.3230   12.7130 O   0  0  0  0  0  0  0  0  0  0  0  0
   16.1620   -5.6990   13.0650 C   0  0  0  0  0  0  0  0  0  0  0  0
   14.1890   -4.2660   11.3850 C   0  0  0  0  0  0  0  0  0  0  0  0
   13.2950   -3.5460   10.5920 C   0  0  0  0  0  0  0  0  0  0  0  0
   14.9050   -0.0950   10.6740 C   0  0  0  0  0  0  0  0  0  0  0  0
   13.9290    0.8500   11.0270 C   0  0  0  0  0  0  0  0  0  0  0  0
   14.1670    2.2120   10.8350 C   0  0  0  0  0  0  0  0  0  0  0  0
   15.3810    2.6440   10.2970 C   0  0  0  0  0  0  0  0  0  0  0  0
   16.3770    1.7160    9.9480 C   0  0  0  0  0  0  0  0  0  0  0  0
   16.1290    0.3440   10.1430 C   0  0  0  0  0  0  0  0  0  0  0  0
   17.6900    2.2000    9.3560 C   0  0  2  0  0  0  0  0  0  0  0  0
   17.8660    1.7160    7.9840 N   0  0  0  0  0  0  0  0  0  0  0  0
   18.8830    1.7860   10.2230 C   0  0  0  0  0  0  0  0  0  0  0  0
   11.1990   -1.4790    9.6850 C   0  0  0  0  0  0  0  0  0  0  0  0
   10.3100   -0.8100    8.8390 C   0  0  0  0  0  0  0  0  0  0  0  0
   12.5410    0.3480    6.5360 H   0  0  0  0  0  0  0  0  0  0  0  0
   14.1010   -0.8360    8.0150 H   0  0  0  0  0  0  0  0  0  0  0  0
   16.4210   -1.8020   12.0800 H   0  0  0  0  0  0  0  0  0  0  0  0
   17.0300   -5.9750   13.6980 H   0  0  0  0  0  0  0  0  0  0  0  0
   16.1750   -6.3290   12.1500 H   0  0  0  0  0  0  0  0  0  0  0  0
   15.2300   -5.8800   13.6410 H   0  0  0  0  0  0  0  0  0  0  0  0
   13.9890   -5.3120   11.5730 H   0  0  0  0  0  0  0  0  0  0  0  0
   12.4360   -4.0570   10.1760 H   0  0  0  0  0  0  0  0  0  0  0  0
   12.9860    0.5320   11.4530 H   0  0  0  0  0  0  0  0  0  0  0  0
   13.4080    2.9350   11.1050 H   0  0  0  0  0  0  0  0  0  0  0  0
   15.5420    3.7050   10.1540 H   0  0  0  0  0  0  0  0  0  0  0  0
   16.8800   -0.3870    9.8700 H   0  0  0  0  0  0  0  0  0  0  0  0
   17.6930    3.3120    9.3220 H   0  0  0  0  0  0  0  0  0  0  0  0
   17.0510    2.0340    7.4110 H   0  0  0  0  0  0  0  0  0  0  0  0
   18.9970    0.6820   10.2490 H   0  0  0  0  0  0  0  0  0  0  0  0
   18.7480    2.1600   11.2610 H   0  0  0  0  0  0  0  0  0  0  0  0
   19.8170    2.2250    9.8110 H   0  0  0  0  0  0  0  0  0  0  0  0
   10.8170   -1.9810   10.5650 H   0  0  0  0  0  0  0  0  0  0  0  0
    9.2540   -0.8150    9.0800 H   0  0  0  0  0  0  0  0  0  0  0  0
   17.8690    0.2160    7.9670 C   0  0  0  0  0  0  0  0  0  0  0  0
   16.8440   -0.4000    8.3640 O   0  0  0  0  0  0  0  0  0  0  0  0
   19.0590   -0.5130    7.4920 C   0  0  0  0  0  0  0  0  0  0  0  0
   20.1830    0.2040    7.0570 C   0  0  0  0  0  0  0  0  0  0  0  0
   21.3210   -0.4700    6.6060 C   0  0  0  0  0  0  0  0  0  0  0  0
   21.3560   -1.8740    6.5910 C   0  0  0  0  0  0  0  0  0  0  0  0
   22.5650   -2.5930    6.1210 C   0  0  0  0  0  0  0  0  0  0  0  0
   23.8510   -2.3370    6.6630 C   0  0  0  0  0  0  0  0  0  0  0  0
   24.9690   -2.9940    6.1220 C   0  0  0  0  0  0  0  0  0  0  0  0
   24.8320   -3.9120    5.0760 C   0  0  0  0  0  0  0  0  0  0  0  0
   25.9860   -4.5380    4.5840 O   0  0  0  0  0  0  0  0  0  0  0  0
   25.9960   -5.4910    3.5260 C   0  0  0  0  0  0  0  0  0  0  0  0
   23.5520   -4.1780    4.5600 C   0  0  0  0  0  0  0  0  0  0  0  0
   22.4340   -3.5250    5.0790 C   0  0  0  0  0  0  0  0  0  0  0  0
   24.0510   -1.4260    7.8150 C   0  0  0  0  0  0  0  0  0  0  0  0
   23.3500   -1.6290    9.0140 C   0  0  0  0  0  0  0  0  0  0  0  0
   23.5330   -0.7620   10.0910 C   0  0  0  0  0  0  0  0  0  0  0  0
   24.4220    0.3100    9.9870 C   0  0  0  0  0  0  0  0  0  0  0  0
   25.1440    0.5250    8.8010 C   0  0  0  0  0  0  0  0  0  0  0  0
   24.9520   -0.3530    7.7170 C   0  0  0  0  0  0  0  0  0  0  0  0
   26.1010    1.7010    8.6980 C   0  0  2  0  0  0  0  0  0  0  0  0
   25.6650    2.6550    7.6760 N   0  0  0  0  0  0  0  0  0  0  0  0
   27.5330    1.2350    8.4150 C   0  0  0  0  0  0  0  0  0  0  0  0
   20.2270   -2.5920    7.0140 C   0  0  0  0  0  0  0  0  0  0  0  0
   19.0880   -1.9180    7.4650 C   0  0  0  0  0  0  0  0  0  0  0  0
   20.1810    1.2880    7.0650 H   0  0  0  0  0  0  0  0  0  0  0  0
   22.1740    0.1040    6.2640 H   0  0  0  0  0  0  0  0  0  0  0  0
   25.9560   -2.8080    6.5290 H   0  0  0  0  0  0  0  0  0  0  0  0
   27.0390   -5.8200    3.3440 H   0  0  0  0  0  0  0  0  0  0  0  0
   25.5990   -5.0330    2.5960 H   0  0  0  0  0  0  0  0  0  0  0  0
   25.3880   -6.3780    3.8060 H   0  0  0  0  0  0  0  0  0  0  0  0
   23.4120   -4.8830    3.7520 H   0  0  0  0  0  0  0  0  0  0  0  0
   21.4610   -3.7310    4.6490 H   0  0  0  0  0  0  0  0  0  0  0  0
   22.6630   -2.4610    9.1140 H   0  0  0  0  0  0  0  0  0  0  0  0
   22.9850   -0.9220   11.0110 H   0  0  0  0  0  0  0  0  0  0  0  0
   24.5460    0.9720   10.8350 H   0  0  0  0  0  0  0  0  0  0  0  0
   25.4900   -0.1970    6.7910 H   0  0  0  0  0  0  0  0  0  0  0  0
   26.1300    2.2400    9.6710 H   0  0  0  0  0  0  0  0  0  0  0  0
   24.6960    2.9740    7.9090 H   0  0  0  0  0  0  0  0  0  0  0  0
   27.6070    0.7480    7.4210 H   0  0  0  0  0  0  0  0  0  0  0  0
   27.8620    0.5160    9.1960 H   0  0  0  0  0  0  0  0  0  0  0  0
   28.2200    2.1080    8.4300 H   0  0  0  0  0  0  0  0  0  0  0  0
   20.2330   -3.6750    7.0090 H   0  0  0  0  0  0  0  0  0  0  0  0
   18.2330   -2.4950    7.7930 H   0  0  0  0  0  0  0  0  0  0  0  0
   -2.7790   -7.0830    0.1390 C   0  0  0  0  0  0  0  0  0  0  0  0
   -1.8880   -6.0910   -0.2810 O   0  0  0  0  0  0  0  0  0  0  0  0
   -3.5210   -6.6570    0.8490 H   0  0  0  0  0  0  0  0  0  0  0  0
   -2.2130   -7.8870    0.6530 H   0  0  0  0  0  0  0  0  0  0  0  0
   -3.3060   -7.5210   -0.7370 H   0  0  0  0  0  0  0  0  0  0  0  0
   28.4160    0.5950    4.2560 C   0  0  0  0  0  0  0  0  0  0  0  0
   26.9230    0.8810    4.4770 C   0  0  0  0  0  0  0  0  0  0  0  0
   26.4170    1.7900    3.3400 C   0  0  0  0  0  0  0  0  0  0  0  0
   26.1560   -0.4560    4.4830 C   0  0  0  0  0  0  0  0  0  0  0  0
   26.7990    1.5410    5.7460 O   0  0  0  0  0  0  0  0  0  0  0  0
   25.6060    1.9810    6.3380 C   0  0  0  0  0  0  0  0  0  0  0  0
   24.4900    1.8250    5.7770 O   0  0  0  0  0  0  0  0  0  0  0  0
   28.5850    0.0810    3.2850 H   0  0  0  0  0  0  0  0  0  0  0  0
   28.9950    1.5440    4.2590 H   0  0  0  0  0  0  0  0  0  0  0  0
   28.8090   -0.0510    5.0700 H   0  0  0  0  0  0  0  0  0  0  0  0
   26.9220    2.7790    3.3880 H   0  0  0  0  0  0  0  0  0  0  0  0
   25.3220    1.9540    3.4100 H   0  0  0  0  0  0  0  0  0  0  0  0
   26.6280    1.3320    2.3500 H   0  0  0  0  0  0  0  0  0  0  0  0
   26.4740   -1.0760    5.3490 H   0  0  0  0  0  0  0  0  0  0  0  0
   25.0610   -0.2940    4.5530 H   0  0  0  0  0  0  0  0  0  0  0  0
   26.3540   -1.0240    3.5490 H   0  0  0  0  0  0  0  0  0  0  0  0
  1  2  2  0  0  0  0
  1  3  1  0  0  0  0
  1178  1  0  0  0  0
  3  4  2  0  0  0  0
  3 25  1  0  0  0  0
  4  5  1  0  0  0  0
  4 26  1  0  0  0  0
  5  6  2  0  0  0  0
  5 27  1  0  0  0  0
  6  7  1  0  0  0  0
  6 24  1  0  0  0  0
  7  8  2  0  0  0  0
  7 14  1  0  0  0  0
  8  9  1  0  0  0  0
  8 15  1  0  0  0  0
  9 10  2  0  0  0  0
  9 28  1  0  0  0  0
 10 11  1  0  0  0  0
 10 13  1  0  0  0  0
 11 12  1  0  0  0  0
 12 29  1  0  0  0  0
 12 30  1  0  0  0  0
 12 31  1  0  0  0  0
 13 14  2  0  0  0  0
 13 32  1  0  0  0  0
 14 33  1  0  0  0  0
 15 16  2  0  0  0  0
 15 20  1  0  0  0  0
 16 17  1  0  0  0  0
 16 34  1  0  0  0  0
 17 18  2  0  0  0  0
 17 35  1  0  0  0  0
 18 19  1  0  0  0  0
 18 36  1  0  0  0  0
 19 20  2  0  0  0  0
 19 21  1  0  0  0  0
 20 37  1  0  0  0  0
 21 22  1  0  0  0  0
 21 23  1  0  0  0  0
 21 38  1  6  0  0  0
 22 39  1  0  0  0  0
 22 45  1  0  0  0  0
 23 40  1  0  0  0  0
 23 41  1  0  0  0  0
 23 42  1  0  0  0  0
 24 25  2  0  0  0  0
 24 43  1  0  0  0  0
 25 44  1  0  0  0  0
 45 46  2  0  0  0  0
 45 47  1  0  0  0  0
 47 48  2  0  0  0  0
 47 69  1  0  0  0  0
 48 49  1  0  0  0  0
 48 70  1  0  0  0  0
 49 50  2  0  0  0  0
 49 71  1  0  0  0  0
 50 51  1  0  0  0  0
 50 68  1  0  0  0  0
 51 52  2  0  0  0  0
 51 58  1  0  0  0  0
 52 53  1  0  0  0  0
 52 59  1  0  0  0  0
 53 54  2  0  0  0  0
 53 72  1  0  0  0  0
 54 55  1  0  0  0  0
 54 57  1  0  0  0  0
 55 56  1  0  0  0  0
 56 73  1  0  0  0  0
 56 74  1  0  0  0  0
 56 75  1  0  0  0  0
 57 58  2  0  0  0  0
 57 76  1  0  0  0  0
 58 77  1  0  0  0  0
 59 60  2  0  0  0  0
 59 64  1  0  0  0  0
 60 61  1  0  0  0  0
 60 78  1  0  0  0  0
 61 62  2  0  0  0  0
 61 79  1  0  0  0  0
 62 63  1  0  0  0  0
 62 80  1  0  0  0  0
 63 64  2  0  0  0  0
 63 65  1  0  0  0  0
 64 81  1  0  0  0  0
 65 66  1  0  0  0  0
 65 67  1  0  0  0  0
 65 82  1  6  0  0  0
 66 83  1  0  0  0  0
 66 89  1  0  0  0  0
 67 84  1  0  0  0  0
 67 85  1  0  0  0  0
 67 86  1  0  0  0  0
 68 69  2  0  0  0  0
 68 87  1  0  0  0  0
 69 88  1  0  0  0  0
 89 90  2  0  0  0  0
 89 91  1  0  0  0  0
 91 92  2  0  0  0  0
 91113  1  0  0  0  0
 92 93  1  0  0  0  0
 92114  1  0  0  0  0
 93 94  2  0  0  0  0
 93115  1  0  0  0  0
 94 95  1  0  0  0  0
 94112  1  0  0  0  0
 95 96  2  0  0  0  0
 95102  1  0  0  0  0
 96 97  1  0  0  0  0
 96103  1  0  0  0  0
 97 98  2  0  0  0  0
 97116  1  0  0  0  0
 98 99  1  0  0  0  0
 98101  1  0  0  0  0
 99100  1  0  0  0  0
100117  1  0  0  0  0
100118  1  0  0  0  0
100119  1  0  0  0  0
101102  2  0  0  0  0
101120  1  0  0  0  0
102121  1  0  0  0  0
103104  2  0  0  0  0
103108  1  0  0  0  0
104105  1  0  0  0  0
104122  1  0  0  0  0
105106  2  0  0  0  0
105123  1  0  0  0  0
106107  1  0  0  0  0
106124  1  0  0  0  0
107108  2  0  0  0  0
107109  1  0  0  0  0
108125  1  0  0  0  0
109110  1  0  0  0  0
109111  1  0  0  0  0
109126  1  6  0  0  0
110127  1  0  0  0  0
110133  1  0  0  0  0
111128  1  0  0  0  0
111129  1  0  0  0  0
111130  1  0  0  0  0
112113  2  0  0  0  0
112131  1  0  0  0  0
113132  1  0  0  0  0
133134  2  0  0  0  0
133135  1  0  0  0  0
135136  2  0  0  0  0
135157  1  0  0  0  0
136137  1  0  0  0  0
136158  1  0  0  0  0
137138  2  0  0  0  0
137159  1  0  0  0  0
138139  1  0  0  0  0
138156  1  0  0  0  0
139140  2  0  0  0  0
139146  1  0  0  0  0
140141  1  0  0  0  0
140147  1  0  0  0  0
141142  2  0  0  0  0
141160  1  0  0  0  0
142143  1  0  0  0  0
142145  1  0  0  0  0
143144  1  0  0  0  0
144161  1  0  0  0  0
144162  1  0  0  0  0
144163  1  0  0  0  0
145146  2  0  0  0  0
145164  1  0  0  0  0
146165  1  0  0  0  0
147148  2  0  0  0  0
147152  1  0  0  0  0
148149  1  0  0  0  0
148166  1  0  0  0  0
149150  2  0  0  0  0
149167  1  0  0  0  0
150151  1  0  0  0  0
150168  1  0  0  0  0
151152  2  0  0  0  0
151153  1  0  0  0  0
152169  1  0  0  0  0
153154  1  0  0  0  0
153155  1  0  0  0  0
153170  1  1  0  0  0
154171  1  0  0  0  0
154187  1  0  0  0  0
155172  1  0  0  0  0
155173  1  0  0  0  0
155174  1  0  0  0  0
156157  2  0  0  0  0
156175  1  0  0  0  0
157176  1  0  0  0  0
177178  1  0  0  0  0
177179  1  0  0  0  0
177180  1  0  0  0  0
177181  1  0  0  0  0
182183  1  0  0  0  0
182189  1  0  0  0  0
182190  1  0  0  0  0
182191  1  0  0  0  0
183184  1  0  0  0  0
183185  1  0  0  0  0
183186  1  0  0  0  0
184192  1  0  0  0  0
184193  1  0  0  0  0
184194  1  0  0  0  0
185195  1  0  0  0  0
185196  1  0  0  0  0
185197  1  0  0  0  0
186187  1  0  0  0  0
187188  2  0  0  0  0
M  END
$$$$
